
 OpenBabel10032415253D

 27 29  0  0  0  0  0  0  0  0999 V2000
   -0.6540  -21.4970    3.7480 C   0  0  0  0  0  0  0  0  0  0  0  0
    0.7040  -21.8020    3.7510 C   0  0  0  0  0  3  0  0  0  0  0  0
    1.0930  -23.1430    3.7850 C   0  0  0  0  0  0  0  0  0  0  0  0
    0.1330  -24.1710    3.8270 C   0  0  0  0  0  0  0  0  0  0  0  0
   -1.2260  -23.8490    3.8230 C   0  0  0  0  0  0  0  0  0  0  0  0
   -1.6190  -22.5060    3.7760 C   0  0  0  0  0  3  0  0  0  0  0  0
    0.5080  -25.5970    3.8860 C   0  0  0  0  0  0  0  0  0  0  0  0
   -0.6010  -26.5820    4.0040 C   0  0  0  0  0  0  0  0  0  0  0  0
   -1.8730  -26.1320    4.0100 C   0  0  0  0  0  0  0  0  0  0  0  0
   -2.2290  -24.7950    3.8730 O   0  0  0  0  0  0  0  0  0  0  0  0
    1.6740  -25.9820    3.8560 O   0  0  0  0  0  0  0  0  0  0  0  0
   -3.0120  -27.0640    4.1930 C   0  0  0  0  0  0  0  0  0  0  0  0
   -3.3120  -27.6420    5.4380 C   0  0  0  0  0  3  0  0  0  0  0  0
   -4.4510  -28.4550    5.6000 C   0  0  0  0  0  3  0  0  0  0  0  0
   -5.2960  -28.6810    4.5160 C   0  0  0  0  0  0  0  0  0  0  0  0
   -5.0050  -28.1090    3.2830 C   0  0  0  0  0  0  0  0  0  0  0  0
   -3.8690  -27.3260    3.1120 C   0  0  0  0  0  3  0  0  0  0  0  0
   -6.4220  -29.4490    4.6120 O   0  0  0  0  0  0  0  0  0  0  0  0
   -6.4860  -29.8050    5.5150 H   0  0  0  0  0  0  0  0  0  0  0  0
   -5.8330  -28.2830    2.2110 O   0  0  0  0  0  0  0  0  0  0  0  0
   -6.5620  -28.8520    2.5270 H   0  0  0  0  0  0  0  0  0  0  0  0
   -1.0930  -20.2050    3.7250 O   0  0  0  0  0  0  0  0  0  0  0  0
   -0.3350  -19.5980    3.7330 H   0  0  0  0  0  0  0  0  0  0  0  0
    2.4260  -23.4450    3.7890 O   0  0  0  0  0  0  0  0  0  0  0  0
    2.9830  -22.6540    3.7600 H   0  0  0  0  0  0  0  0  0  0  0  0
   -0.2310  -27.9130    4.1100 O   0  0  0  0  0  0  0  0  0  0  0  0
   -1.0180  -28.4780    4.1440 H   0  0  0  0  0  0  0  0  0  0  0  0
  1  2  2  0  0  0  0
  1  6  1  0  0  0  0
  2  3  1  0  0  0  0
  3 24  1  0  0  0  0
  3  4  2  0  0  0  0
  4  7  1  0  0  0  0
  5  4  1  0  0  0  0
  5 10  1  0  0  0  0
  6  5  2  0  0  0  0
  7  8  1  0  0  0  0
  8  9  2  0  0  0  0
  8 26  1  0  0  0  0
  9 12  1  0  0  0  0
 10  9  1  0  0  0  0
 11  7  2  0  0  0  0
 12 13  1  0  0  0  0
 13 14  2  0  0  0  0
 15 18  1  0  0  0  0
 15 14  1  0  0  0  0
 16 15  2  0  0  0  0
 17 16  1  0  0  0  0
 17 12  2  0  0  0  0
 18 19  1  0  0  0  0
 20 21  1  0  0  0  0
 20 16  1  0  0  0  0
 22 23  1  0  0  0  0
 22  1  1  0  0  0  0
 25 24  1  0  0  0  0
 26 27  1  0  0  0  0
M  END
>  <minimizedAffinity>
-8.35575867

$$$$
