
 OpenBabel10032415253D

 27 29  0  0  0  0  0  0  0  0999 V2000
   -5.9830  -25.9750    2.6770 C   0  0  0  0  0  0  0  0  0  0  0  0
   -5.9230  -27.3650    2.6520 C   0  0  0  0  0  3  0  0  0  0  0  0
   -4.7160  -27.9940    2.9670 C   0  0  0  0  0  0  0  0  0  0  0  0
   -3.5750  -27.2370    3.2950 C   0  0  0  0  0  0  0  0  0  0  0  0
   -3.6520  -25.8430    3.3150 C   0  0  0  0  0  0  0  0  0  0  0  0
   -4.8630  -25.2120    3.0110 C   0  0  0  0  0  3  0  0  0  0  0  0
   -2.2790  -27.8670    3.6120 C   0  0  0  0  0  0  0  0  0  0  0  0
   -1.1300  -26.9550    3.8660 C   0  0  0  0  0  0  0  0  0  0  0  0
   -1.3390  -25.6220    3.8330 C   0  0  0  0  0  0  0  0  0  0  0  0
   -2.5770  -25.0300    3.6150 O   0  0  0  0  0  0  0  0  0  0  0  0
   -2.1210  -29.0840    3.6570 O   0  0  0  0  0  0  0  0  0  0  0  0
   -0.2160  -24.6690    4.0130 C   0  0  0  0  0  0  0  0  0  0  0  0
    1.0060  -25.0550    4.5880 C   0  0  0  0  0  3  0  0  0  0  0  0
    2.0830  -24.1500    4.6660 C   0  0  0  0  0  3  0  0  0  0  0  0
    1.9390  -22.8610    4.1580 C   0  0  0  0  0  0  0  0  0  0  0  0
    0.7310  -22.4760    3.5850 C   0  0  0  0  0  0  0  0  0  0  0  0
   -0.3420  -23.3570    3.5280 C   0  0  0  0  0  3  0  0  0  0  0  0
    2.9490  -21.9420    4.1920 O   0  0  0  0  0  0  0  0  0  0  0  0
    3.7180  -22.3350    4.6410 H   0  0  0  0  0  0  0  0  0  0  0  0
    0.5720  -21.2320    3.0460 O   0  0  0  0  0  0  0  0  0  0  0  0
    1.4230  -20.7710    3.1820 H   0  0  0  0  0  0  0  0  0  0  0  0
   -7.1320  -25.3060    2.3680 O   0  0  0  0  0  0  0  0  0  0  0  0
   -7.8290  -25.9400    2.1280 H   0  0  0  0  0  0  0  0  0  0  0  0
   -4.6550  -29.3590    2.9440 O   0  0  0  0  0  0  0  0  0  0  0  0
   -5.5020  -29.7610    2.7030 H   0  0  0  0  0  0  0  0  0  0  0  0
    0.0910  -27.5610    4.1120 O   0  0  0  0  0  0  0  0  0  0  0  0
    0.7650  -26.8900    4.3020 H   0  0  0  0  0  0  0  0  0  0  0  0
  1  6  1  0  0  0  0
  2  1  2  0  0  0  0
  2  3  1  0  0  0  0
  3  4  2  0  0  0  0
  4  5  1  0  0  0  0
  4  7  1  0  0  0  0
  5 10  1  0  0  0  0
  6  5  2  0  0  0  0
  7 11  2  0  0  0  0
  7  8  1  0  0  0  0
  8 26  1  0  0  0  0
  9  8  2  0  0  0  0
  9 12  1  0  0  0  0
 10  9  1  0  0  0  0
 12 13  1  0  0  0  0
 13 14  2  0  0  0  0
 15 18  1  0  0  0  0
 15 14  1  0  0  0  0
 16 15  2  0  0  0  0
 17 16  1  0  0  0  0
 17 12  2  0  0  0  0
 18 19  1  0  0  0  0
 20 21  1  0  0  0  0
 20 16  1  0  0  0  0
 22  1  1  0  0  0  0
 23 22  1  0  0  0  0
 24  3  1  0  0  0  0
 25 24  1  0  0  0  0
 26 27  1  0  0  0  0
M  END
>  <minimizedAffinity>
-9.06274796

$$$$
