
 OpenBabel10032415253D

 27 29  0  0  0  0  0  0  0  0999 V2000
    2.3050  -22.7060    4.3900 C   0  0  0  0  0  0  0  0  0  0  0  0
    2.3400  -24.0490    4.7560 C   0  0  0  0  0  3  0  0  0  0  0  0
    1.2170  -24.8420    4.5160 C   0  0  0  0  0  0  0  0  0  0  0  0
    0.0630  -24.2960    3.9240 C   0  0  0  0  0  0  0  0  0  0  0  0
    0.0430  -22.9470    3.5630 C   0  0  0  0  0  0  0  0  0  0  0  0
    1.1720  -22.1520    3.7910 C   0  0  0  0  0  3  0  0  0  0  0  0
   -1.1500  -25.0990    3.6760 C   0  0  0  0  0  0  0  0  0  0  0  0
   -2.3300  -24.3850    3.1150 C   0  0  0  0  0  0  0  0  0  0  0  0
   -2.2190  -23.0710    2.8310 C   0  0  0  0  0  0  0  0  0  0  0  0
   -1.0520  -22.3330    2.9890 O   0  0  0  0  0  0  0  0  0  0  0  0
   -1.2180  -26.3000    3.9230 O   0  0  0  0  0  0  0  0  0  0  0  0
   -3.3830  -22.2970    2.3340 C   0  0  0  0  0  0  0  0  0  0  0  0
   -4.1650  -21.4960    3.1840 C   0  0  0  0  0  3  0  0  0  0  0  0
   -5.2100  -20.7050    2.6680 C   0  0  0  0  0  3  0  0  0  0  0  0
   -5.4660  -20.7080    1.2990 C   0  0  0  0  0  0  0  0  0  0  0  0
   -4.6930  -21.4970    0.4540 C   0  0  0  0  0  0  0  0  0  0  0  0
   -3.6760  -22.2980    0.9600 C   0  0  0  0  0  3  0  0  0  0  0  0
   -6.4570  -19.9540    0.7370 O   0  0  0  0  0  0  0  0  0  0  0  0
   -6.9300  -19.4780    1.4410 H   0  0  0  0  0  0  0  0  0  0  0  0
   -4.8970  -21.4940   -0.8960 O   0  0  0  0  0  0  0  0  0  0  0  0
   -5.6410  -20.8800   -1.0520 H   0  0  0  0  0  0  0  0  0  0  0  0
    3.3690  -21.8800    4.6100 O   0  0  0  0  0  0  0  0  0  0  0  0
    4.0830  -22.3710    5.0520 H   0  0  0  0  0  0  0  0  0  0  0  0
    1.2490  -26.1610    4.8740 O   0  0  0  0  0  0  0  0  0  0  0  0
    2.0950  -26.4130    5.2710 H   0  0  0  0  0  0  0  0  0  0  0  0
   -3.4760  -25.1420    2.9350 O   0  0  0  0  0  0  0  0  0  0  0  0
   -4.1740  -24.6020    2.5340 H   0  0  0  0  0  0  0  0  0  0  0  0
  1 22  1  0  0  0  0
  1  2  1  0  0  0  0
  3  2  2  0  0  0  0
  3 24  1  0  0  0  0
  4  3  1  0  0  0  0
  5  6  1  0  0  0  0
  5  4  2  0  0  0  0
  6  1  2  0  0  0  0
  7 11  2  0  0  0  0
  7  4  1  0  0  0  0
  8  7  1  0  0  0  0
  9 10  1  0  0  0  0
  9  8  2  0  0  0  0
 10  5  1  0  0  0  0
 12  9  1  0  0  0  0
 12 13  1  0  0  0  0
 14 13  2  0  0  0  0
 15 14  1  0  0  0  0
 16 17  1  0  0  0  0
 16 15  2  0  0  0  0
 17 12  2  0  0  0  0
 18 15  1  0  0  0  0
 18 19  1  0  0  0  0
 20 16  1  0  0  0  0
 21 20  1  0  0  0  0
 22 23  1  0  0  0  0
 24 25  1  0  0  0  0
 26  8  1  0  0  0  0
 27 26  1  0  0  0  0
M  END
>  <minimizedAffinity>
-8.25022316

$$$$
