
 OpenBabel10032415253D

 27 29  0  0  0  0  0  0  0  0999 V2000
    0.5560  -22.7350    3.4960 C   0  0  0  0  0  0  0  0  0  0  0  0
    1.4090  -23.7960    3.2100 C   0  0  0  0  0  3  0  0  0  0  0  0
    0.9570  -25.1000    3.4190 C   0  0  0  0  0  0  0  0  0  0  0  0
   -0.3360  -25.3420    3.9200 C   0  0  0  0  0  0  0  0  0  0  0  0
   -1.1810  -24.2660    4.2030 C   0  0  0  0  0  0  0  0  0  0  0  0
   -0.7330  -22.9580    3.9820 C   0  0  0  0  0  3  0  0  0  0  0  0
   -0.8400  -26.7060    4.1740 C   0  0  0  0  0  0  0  0  0  0  0  0
   -2.1950  -26.8230    4.7780 C   0  0  0  0  0  0  0  0  0  0  0  0
   -2.8980  -25.6970    5.0200 C   0  0  0  0  0  0  0  0  0  0  0  0
   -2.4570  -24.4170    4.7070 O   0  0  0  0  0  0  0  0  0  0  0  0
   -0.1880  -27.7150    3.9230 O   0  0  0  0  0  0  0  0  0  0  0  0
   -4.2250  -25.7530    5.6820 C   0  0  0  0  0  0  0  0  0  0  0  0
   -5.4070  -26.0070    4.9660 C   0  0  0  0  0  3  0  0  0  0  0  0
   -6.6400  -26.1400    5.6340 C   0  0  0  0  0  3  0  0  0  0  0  0
   -6.6870  -26.0290    7.0210 C   0  0  0  0  0  0  0  0  0  0  0  0
   -5.5200  -25.7810    7.7350 C   0  0  0  0  0  0  0  0  0  0  0  0
   -4.3050  -25.6240    7.0790 C   0  0  0  0  0  3  0  0  0  0  0  0
   -7.8500  -26.1610    7.7280 O   0  0  0  0  0  0  0  0  0  0  0  0
   -8.5840  -26.3030    7.1050 H   0  0  0  0  0  0  0  0  0  0  0  0
   -5.5300  -25.7030    9.0980 O   0  0  0  0  0  0  0  0  0  0  0  0
   -6.4590  -25.8370    9.3660 H   0  0  0  0  0  0  0  0  0  0  0  0
    0.9480  -21.4390    3.3210 O   0  0  0  0  0  0  0  0  0  0  0  0
    1.8670  -21.4110    3.0050 H   0  0  0  0  0  0  0  0  0  0  0  0
    1.7930  -26.1450    3.1390 O   0  0  0  0  0  0  0  0  0  0  0  0
    2.6510  -25.8480    2.8030 H   0  0  0  0  0  0  0  0  0  0  0  0
   -2.6330  -28.1070    5.0570 O   0  0  0  0  0  0  0  0  0  0  0  0
   -3.5360  -28.0840    5.4100 H   0  0  0  0  0  0  0  0  0  0  0  0
  1  6  1  0  0  0  0
  2  3  1  0  0  0  0
  2  1  2  0  0  0  0
  3  4  2  0  0  0  0
  4  7  1  0  0  0  0
  4  5  1  0  0  0  0
  5 10  1  0  0  0  0
  6  5  2  0  0  0  0
  7  8  1  0  0  0  0
  8  9  2  0  0  0  0
  8 26  1  0  0  0  0
  9 12  1  0  0  0  0
 10  9  1  0  0  0  0
 11  7  2  0  0  0  0
 12 17  1  0  0  0  0
 13 14  1  0  0  0  0
 13 12  2  0  0  0  0
 14 15  2  0  0  0  0
 15 18  1  0  0  0  0
 15 16  1  0  0  0  0
 16 20  1  0  0  0  0
 17 16  2  0  0  0  0
 19 18  1  0  0  0  0
 20 21  1  0  0  0  0
 22  1  1  0  0  0  0
 23 22  1  0  0  0  0
 24  3  1  0  0  0  0
 25 24  1  0  0  0  0
 26 27  1  0  0  0  0
M  END
>  <minimizedAffinity>
-8.66494846

$$$$
