
 OpenBabel10032415253D

 27 29  0  0  0  0  0  0  0  0999 V2000
   -1.5240  -20.7860    3.4200 C   0  0  0  0  0  0  0  0  0  0  0  0
   -0.1940  -20.5060    3.7200 C   0  0  0  0  0  3  0  0  0  0  0  0
    0.6970  -21.5680    3.8860 C   0  0  0  0  0  0  0  0  0  0  0  0
    0.2600  -22.9000    3.7620 C   0  0  0  0  0  0  0  0  0  0  0  0
   -1.0780  -23.1650    3.4590 C   0  0  0  0  0  0  0  0  0  0  0  0
   -1.9700  -22.1010    3.2810 C   0  0  0  0  0  3  0  0  0  0  0  0
    1.1690  -24.0470    3.9510 C   0  0  0  0  0  0  0  0  0  0  0  0
    0.5670  -25.4060    3.8690 C   0  0  0  0  0  0  0  0  0  0  0  0
   -0.7480  -25.5180    3.5910 C   0  0  0  0  0  0  0  0  0  0  0  0
   -1.5870  -24.4410    3.3320 O   0  0  0  0  0  0  0  0  0  0  0  0
    2.3680  -23.9180    4.1820 O   0  0  0  0  0  0  0  0  0  0  0  0
   -1.4120  -26.8450    3.5640 C   0  0  0  0  0  0  0  0  0  0  0  0
   -2.2640  -27.2750    4.5950 C   0  0  0  0  0  3  0  0  0  0  0  0
   -2.9480  -28.5030    4.5000 C   0  0  0  0  0  3  0  0  0  0  0  0
   -2.7860  -29.2960    3.3660 C   0  0  0  0  0  0  0  0  0  0  0  0
   -1.9460  -28.8730    2.3420 C   0  0  0  0  0  0  0  0  0  0  0  0
   -1.2510  -27.6740    2.4410 C   0  0  0  0  0  3  0  0  0  0  0  0
   -3.4310  -30.4900    3.2090 O   0  0  0  0  0  0  0  0  0  0  0  0
   -3.9580  -30.6720    4.0060 H   0  0  0  0  0  0  0  0  0  0  0  0
   -1.7960  -29.6110    1.2030 O   0  0  0  0  0  0  0  0  0  0  0  0
   -2.3560  -30.4030    1.3220 H   0  0  0  0  0  0  0  0  0  0  0  0
   -2.4420  -19.7890    3.2570 O   0  0  0  0  0  0  0  0  0  0  0  0
   -2.0210  -18.9240    3.4020 H   0  0  0  0  0  0  0  0  0  0  0  0
    2.0030  -21.2960    4.1810 O   0  0  0  0  0  0  0  0  0  0  0  0
    2.1760  -20.3460    4.2410 H   0  0  0  0  0  0  0  0  0  0  0  0
    1.4230  -26.4710    4.1000 O   0  0  0  0  0  0  0  0  0  0  0  0
    0.9510  -27.3100    3.9880 H   0  0  0  0  0  0  0  0  0  0  0  0
  1  2  1  0  0  0  0
  2  3  2  0  0  0  0
  3 24  1  0  0  0  0
  4  3  1  0  0  0  0
  4  7  1  0  0  0  0
  5  4  2  0  0  0  0
  6  1  2  0  0  0  0
  6  5  1  0  0  0  0
  7 11  2  0  0  0  0
  8  7  1  0  0  0  0
  8 26  1  0  0  0  0
  9  8  2  0  0  0  0
 10  5  1  0  0  0  0
 10  9  1  0  0  0  0
 12  9  1  0  0  0  0
 12 13  1  0  0  0  0
 14 13  2  0  0  0  0
 15 14  1  0  0  0  0
 16 17  1  0  0  0  0
 16 15  2  0  0  0  0
 17 12  2  0  0  0  0
 18 15  1  0  0  0  0
 18 19  1  0  0  0  0
 20 21  1  0  0  0  0
 20 16  1  0  0  0  0
 22 23  1  0  0  0  0
 22  1  1  0  0  0  0
 24 25  1  0  0  0  0
 27 26  1  0  0  0  0
M  END
>  <minimizedAffinity>
-8.96990204

$$$$
