
 OpenBabel10032415253D

 27 29  0  0  0  0  0  0  0  0999 V2000
   -5.3870  -26.0350    7.5320 C   0  0  0  0  0  0  0  0  0  0  0  0
   -5.9030  -26.9540    6.6220 C   0  0  0  0  0  3  0  0  0  0  0  0
   -5.1710  -27.2450    5.4690 C   0  0  0  0  0  0  0  0  0  0  0  0
   -3.9360  -26.6150    5.2220 C   0  0  0  0  0  0  0  0  0  0  0  0
   -3.4320  -25.6960    6.1450 C   0  0  0  0  0  0  0  0  0  0  0  0
   -4.1580  -25.4120    7.3070 C   0  0  0  0  0  3  0  0  0  0  0  0
   -3.1460  -26.8830    4.0050 C   0  0  0  0  0  0  0  0  0  0  0  0
   -1.8970  -26.0950    3.8250 C   0  0  0  0  0  0  0  0  0  0  0  0
   -1.5350  -25.2210    4.7870 C   0  0  0  0  0  0  0  0  0  0  0  0
   -2.2360  -25.0290    5.9710 O   0  0  0  0  0  0  0  0  0  0  0  0
   -3.4870  -27.7000    3.1540 O   0  0  0  0  0  0  0  0  0  0  0  0
   -0.3360  -24.3630    4.6270 C   0  0  0  0  0  0  0  0  0  0  0  0
    0.9570  -24.8220    4.9300 C   0  0  0  0  0  3  0  0  0  0  0  0
    2.0850  -24.0140    4.6860 C   0  0  0  0  0  3  0  0  0  0  0  0
    1.9180  -22.7480    4.1290 C   0  0  0  0  0  0  0  0  0  0  0  0
    0.6400  -22.2900    3.8250 C   0  0  0  0  0  0  0  0  0  0  0  0
   -0.4770  -23.0740    4.0870 C   0  0  0  0  0  3  0  0  0  0  0  0
    2.9720  -21.9220    3.8570 O   0  0  0  0  0  0  0  0  0  0  0  0
    3.7950  -22.3550    4.1430 H   0  0  0  0  0  0  0  0  0  0  0  0
    0.4480  -21.0690    3.2460 O   0  0  0  0  0  0  0  0  0  0  0  0
    1.3380  -20.6790    3.1450 H   0  0  0  0  0  0  0  0  0  0  0  0
   -6.0630  -25.7040    8.6700 O   0  0  0  0  0  0  0  0  0  0  0  0
   -6.9100  -26.1800    8.7030 H   0  0  0  0  0  0  0  0  0  0  0  0
   -5.6760  -28.1460    4.5750 O   0  0  0  0  0  0  0  0  0  0  0  0
   -6.5290  -28.5060    4.8570 H   0  0  0  0  0  0  0  0  0  0  0  0
   -1.1930  -26.3210    2.6530 O   0  0  0  0  0  0  0  0  0  0  0  0
   -0.3800  -25.7930    2.6440 H   0  0  0  0  0  0  0  0  0  0  0  0
  1 22  1  0  0  0  0
  2  1  2  0  0  0  0
  3  2  1  0  0  0  0
  4  3  2  0  0  0  0
  4  5  1  0  0  0  0
  5  6  2  0  0  0  0
  6  1  1  0  0  0  0
  7  4  1  0  0  0  0
  8  7  1  0  0  0  0
  8  9  2  0  0  0  0
  9 10  1  0  0  0  0
 10  5  1  0  0  0  0
 11  7  2  0  0  0  0
 12  9  1  0  0  0  0
 12 13  1  0  0  0  0
 14 13  2  0  0  0  0
 15 14  1  0  0  0  0
 16 17  1  0  0  0  0
 16 15  2  0  0  0  0
 17 12  2  0  0  0  0
 18 15  1  0  0  0  0
 18 19  1  0  0  0  0
 20 16  1  0  0  0  0
 21 20  1  0  0  0  0
 22 23  1  0  0  0  0
 24 25  1  0  0  0  0
 24  3  1  0  0  0  0
 26  8  1  0  0  0  0
 27 26  1  0  0  0  0
M  END
>  <minimizedAffinity>
-8.62177086

$$$$
