
 OpenBabel10032415253D

 27 29  0  0  0  0  0  0  0  0999 V2000
   -4.6520  -27.9560    5.5970 C   0  0  0  0  0  0  0  0  0  0  0  0
   -4.6640  -28.8850    4.5610 C   0  0  0  0  0  3  0  0  0  0  0  0
   -3.6380  -28.8500    3.6130 C   0  0  0  0  0  0  0  0  0  0  0  0
   -2.6140  -27.8880    3.6960 C   0  0  0  0  0  0  0  0  0  0  0  0
   -2.6160  -26.9630    4.7420 C   0  0  0  0  0  0  0  0  0  0  0  0
   -3.6370  -27.0040    5.7000 C   0  0  0  0  0  3  0  0  0  0  0  0
   -1.5270  -27.8090    2.7010 C   0  0  0  0  0  0  0  0  0  0  0  0
   -0.5490  -26.6980    2.8580 C   0  0  0  0  0  0  0  0  0  0  0  0
   -0.6800  -25.8590    3.9060 C   0  0  0  0  0  0  0  0  0  0  0  0
   -1.6560  -25.9830    4.8880 O   0  0  0  0  0  0  0  0  0  0  0  0
   -1.4180  -28.5990    1.7680 O   0  0  0  0  0  0  0  0  0  0  0  0
    0.2260  -24.6970    4.0720 C   0  0  0  0  0  0  0  0  0  0  0  0
    1.5060  -24.8220    4.6380 C   0  0  0  0  0  3  0  0  0  0  0  0
    2.3770  -23.7170    4.7030 C   0  0  0  0  0  3  0  0  0  0  0  0
    1.9690  -22.4870    4.1910 C   0  0  0  0  0  0  0  0  0  0  0  0
    0.7040  -22.3590    3.6270 C   0  0  0  0  0  0  0  0  0  0  0  0
   -0.1680  -23.4400    3.5830 C   0  0  0  0  0  3  0  0  0  0  0  0
    2.7710  -21.3810    4.2130 O   0  0  0  0  0  0  0  0  0  0  0  0
    3.6070  -21.6070    4.6570 H   0  0  0  0  0  0  0  0  0  0  0  0
    0.2900  -21.1760    3.0850 O   0  0  0  0  0  0  0  0  0  0  0  0
    1.0310  -20.5510    3.2120 H   0  0  0  0  0  0  0  0  0  0  0  0
   -5.6330  -27.9350    6.5460 O   0  0  0  0  0  0  0  0  0  0  0  0
   -6.2930  -28.6240    6.3550 H   0  0  0  0  0  0  0  0  0  0  0  0
   -3.6480  -29.7610    2.5940 O   0  0  0  0  0  0  0  0  0  0  0  0
   -4.4020  -30.3650    2.6480 H   0  0  0  0  0  0  0  0  0  0  0  0
    0.4360  -26.6070    1.8870 O   0  0  0  0  0  0  0  0  0  0  0  0
    1.0430  -25.8800    2.0940 H   0  0  0  0  0  0  0  0  0  0  0  0
  1  6  1  0  0  0  0
  1 22  1  0  0  0  0
  2  1  2  0  0  0  0
  3  4  2  0  0  0  0
  3  2  1  0  0  0  0
  4  5  1  0  0  0  0
  5 10  1  0  0  0  0
  5  6  2  0  0  0  0
  7  8  1  0  0  0  0
  7  4  1  0  0  0  0
  8  9  2  0  0  0  0
  9 12  1  0  0  0  0
  9 10  1  0  0  0  0
 11  7  2  0  0  0  0
 12 13  1  0  0  0  0
 13 14  2  0  0  0  0
 15 18  1  0  0  0  0
 15 14  1  0  0  0  0
 16 15  2  0  0  0  0
 17 16  1  0  0  0  0
 17 12  2  0  0  0  0
 18 19  1  0  0  0  0
 20 21  1  0  0  0  0
 20 16  1  0  0  0  0
 23 22  1  0  0  0  0
 24 25  1  0  0  0  0
 24  3  1  0  0  0  0
 26 27  1  0  0  0  0
 26  8  1  0  0  0  0
M  END
>  <minimizedAffinity>
-10.2133837

$$$$

 OpenBabel10032415253D

 27 29  0  0  0  0  0  0  0  0999 V2000
    1.5460  -24.0180    3.9970 C   0  0  0  0  0  0  0  0  0  0  0  0
    0.4610  -23.1530    3.8800 C   0  0  0  0  0  3  0  0  0  0  0  0
   -0.8210  -23.6920    3.7530 C   0  0  0  0  0  0  0  0  0  0  0  0
   -1.0160  -25.0860    3.7340 C   0  0  0  0  0  0  0  0  0  0  0  0
    0.0810  -25.9410    3.8530 C   0  0  0  0  0  0  0  0  0  0  0  0
    1.3660  -25.4020    3.9920 C   0  0  0  0  0  3  0  0  0  0  0  0
   -2.3540  -25.6900    3.5810 C   0  0  0  0  0  0  0  0  0  0  0  0
   -2.4180  -27.1750    3.4980 C   0  0  0  0  0  0  0  0  0  0  0  0
   -1.2740  -27.8820    3.6060 C   0  0  0  0  0  0  0  0  0  0  0  0
   -0.0250  -27.3170    3.8320 O   0  0  0  0  0  0  0  0  0  0  0  0
   -3.3830  -25.0240    3.5070 O   0  0  0  0  0  0  0  0  0  0  0  0
   -1.2730  -29.3580    3.4640 C   0  0  0  0  0  0  0  0  0  0  0  0
   -1.6110  -29.9920    2.2560 C   0  0  0  0  0  3  0  0  0  0  0  0
   -1.5170  -31.3920    2.1270 C   0  0  0  0  0  3  0  0  0  0  0  0
   -1.0740  -32.1560    3.2040 C   0  0  0  0  0  0  0  0  0  0  0  0
   -0.7350  -31.5320    4.4000 C   0  0  0  0  0  0  0  0  0  0  0  0
   -0.8500  -30.1550    4.5410 C   0  0  0  0  0  3  0  0  0  0  0  0
   -0.9490  -33.5150    3.1360 O   0  0  0  0  0  0  0  0  0  0  0  0
   -1.2440  -33.8160    2.2600 H   0  0  0  0  0  0  0  0  0  0  0  0
   -0.2640  -32.2510    5.4610 O   0  0  0  0  0  0  0  0  0  0  0  0
   -0.2570  -33.1840    5.1690 H   0  0  0  0  0  0  0  0  0  0  0  0
    2.8220  -23.5480    4.1120 O   0  0  0  0  0  0  0  0  0  0  0  0
    2.8210  -22.5770    4.0770 H   0  0  0  0  0  0  0  0  0  0  0  0
   -1.8870  -22.8450    3.6380 O   0  0  0  0  0  0  0  0  0  0  0  0
   -1.6210  -21.9140    3.6630 H   0  0  0  0  0  0  0  0  0  0  0  0
   -3.6750  -27.7250    3.3030 O   0  0  0  0  0  0  0  0  0  0  0  0
   -3.6200  -28.6920    3.3000 H   0  0  0  0  0  0  0  0  0  0  0  0
  1 22  1  0  0  0  0
  2  1  2  0  0  0  0
  3  2  1  0  0  0  0
  4  3  2  0  0  0  0
  4  5  1  0  0  0  0
  5  6  2  0  0  0  0
  6  1  1  0  0  0  0
  7  4  1  0  0  0  0
  8  7  1  0  0  0  0
  8  9  2  0  0  0  0
  9 10  1  0  0  0  0
 10  5  1  0  0  0  0
 11  7  2  0  0  0  0
 12  9  1  0  0  0  0
 12 17  1  0  0  0  0
 13 12  2  0  0  0  0
 14 13  1  0  0  0  0
 14 15  2  0  0  0  0
 15 16  1  0  0  0  0
 16 17  2  0  0  0  0
 16 20  1  0  0  0  0
 18 15  1  0  0  0  0
 19 18  1  0  0  0  0
 21 20  1  0  0  0  0
 23 22  1  0  0  0  0
 24 25  1  0  0  0  0
 24  3  1  0  0  0  0
 26  8  1  0  0  0  0
 27 26  1  0  0  0  0
M  END
>  <minimizedAffinity>
-9.11583996

$$$$

 OpenBabel10032415253D

 27 29  0  0  0  0  0  0  0  0999 V2000
   -5.9830  -25.9750    2.6770 C   0  0  0  0  0  0  0  0  0  0  0  0
   -5.9230  -27.3650    2.6520 C   0  0  0  0  0  3  0  0  0  0  0  0
   -4.7160  -27.9940    2.9670 C   0  0  0  0  0  0  0  0  0  0  0  0
   -3.5750  -27.2370    3.2950 C   0  0  0  0  0  0  0  0  0  0  0  0
   -3.6520  -25.8430    3.3150 C   0  0  0  0  0  0  0  0  0  0  0  0
   -4.8630  -25.2120    3.0110 C   0  0  0  0  0  3  0  0  0  0  0  0
   -2.2790  -27.8670    3.6120 C   0  0  0  0  0  0  0  0  0  0  0  0
   -1.1300  -26.9550    3.8660 C   0  0  0  0  0  0  0  0  0  0  0  0
   -1.3390  -25.6220    3.8330 C   0  0  0  0  0  0  0  0  0  0  0  0
   -2.5770  -25.0300    3.6150 O   0  0  0  0  0  0  0  0  0  0  0  0
   -2.1210  -29.0840    3.6570 O   0  0  0  0  0  0  0  0  0  0  0  0
   -0.2160  -24.6690    4.0130 C   0  0  0  0  0  0  0  0  0  0  0  0
    1.0060  -25.0550    4.5880 C   0  0  0  0  0  3  0  0  0  0  0  0
    2.0830  -24.1500    4.6660 C   0  0  0  0  0  3  0  0  0  0  0  0
    1.9390  -22.8610    4.1580 C   0  0  0  0  0  0  0  0  0  0  0  0
    0.7310  -22.4760    3.5850 C   0  0  0  0  0  0  0  0  0  0  0  0
   -0.3420  -23.3570    3.5280 C   0  0  0  0  0  3  0  0  0  0  0  0
    2.9490  -21.9420    4.1920 O   0  0  0  0  0  0  0  0  0  0  0  0
    3.7180  -22.3350    4.6410 H   0  0  0  0  0  0  0  0  0  0  0  0
    0.5720  -21.2320    3.0460 O   0  0  0  0  0  0  0  0  0  0  0  0
    1.4230  -20.7710    3.1820 H   0  0  0  0  0  0  0  0  0  0  0  0
   -7.1320  -25.3060    2.3680 O   0  0  0  0  0  0  0  0  0  0  0  0
   -7.8290  -25.9400    2.1280 H   0  0  0  0  0  0  0  0  0  0  0  0
   -4.6550  -29.3590    2.9440 O   0  0  0  0  0  0  0  0  0  0  0  0
   -5.5020  -29.7610    2.7030 H   0  0  0  0  0  0  0  0  0  0  0  0
    0.0910  -27.5610    4.1120 O   0  0  0  0  0  0  0  0  0  0  0  0
    0.7650  -26.8900    4.3020 H   0  0  0  0  0  0  0  0  0  0  0  0
  1  6  1  0  0  0  0
  2  1  2  0  0  0  0
  2  3  1  0  0  0  0
  3  4  2  0  0  0  0
  4  5  1  0  0  0  0
  4  7  1  0  0  0  0
  5 10  1  0  0  0  0
  6  5  2  0  0  0  0
  7 11  2  0  0  0  0
  7  8  1  0  0  0  0
  8 26  1  0  0  0  0
  9  8  2  0  0  0  0
  9 12  1  0  0  0  0
 10  9  1  0  0  0  0
 12 13  1  0  0  0  0
 13 14  2  0  0  0  0
 15 18  1  0  0  0  0
 15 14  1  0  0  0  0
 16 15  2  0  0  0  0
 17 16  1  0  0  0  0
 17 12  2  0  0  0  0
 18 19  1  0  0  0  0
 20 21  1  0  0  0  0
 20 16  1  0  0  0  0
 22  1  1  0  0  0  0
 23 22  1  0  0  0  0
 24  3  1  0  0  0  0
 25 24  1  0  0  0  0
 26 27  1  0  0  0  0
M  END
>  <minimizedAffinity>
-9.06274796

$$$$

 OpenBabel10032415253D

 27 29  0  0  0  0  0  0  0  0999 V2000
   -1.5240  -20.7860    3.4200 C   0  0  0  0  0  0  0  0  0  0  0  0
   -0.1940  -20.5060    3.7200 C   0  0  0  0  0  3  0  0  0  0  0  0
    0.6970  -21.5680    3.8860 C   0  0  0  0  0  0  0  0  0  0  0  0
    0.2600  -22.9000    3.7620 C   0  0  0  0  0  0  0  0  0  0  0  0
   -1.0780  -23.1650    3.4590 C   0  0  0  0  0  0  0  0  0  0  0  0
   -1.9700  -22.1010    3.2810 C   0  0  0  0  0  3  0  0  0  0  0  0
    1.1690  -24.0470    3.9510 C   0  0  0  0  0  0  0  0  0  0  0  0
    0.5670  -25.4060    3.8690 C   0  0  0  0  0  0  0  0  0  0  0  0
   -0.7480  -25.5180    3.5910 C   0  0  0  0  0  0  0  0  0  0  0  0
   -1.5870  -24.4410    3.3320 O   0  0  0  0  0  0  0  0  0  0  0  0
    2.3680  -23.9180    4.1820 O   0  0  0  0  0  0  0  0  0  0  0  0
   -1.4120  -26.8450    3.5640 C   0  0  0  0  0  0  0  0  0  0  0  0
   -2.2640  -27.2750    4.5950 C   0  0  0  0  0  3  0  0  0  0  0  0
   -2.9480  -28.5030    4.5000 C   0  0  0  0  0  3  0  0  0  0  0  0
   -2.7860  -29.2960    3.3660 C   0  0  0  0  0  0  0  0  0  0  0  0
   -1.9460  -28.8730    2.3420 C   0  0  0  0  0  0  0  0  0  0  0  0
   -1.2510  -27.6740    2.4410 C   0  0  0  0  0  3  0  0  0  0  0  0
   -3.4310  -30.4900    3.2090 O   0  0  0  0  0  0  0  0  0  0  0  0
   -3.9580  -30.6720    4.0060 H   0  0  0  0  0  0  0  0  0  0  0  0
   -1.7960  -29.6110    1.2030 O   0  0  0  0  0  0  0  0  0  0  0  0
   -2.3560  -30.4030    1.3220 H   0  0  0  0  0  0  0  0  0  0  0  0
   -2.4420  -19.7890    3.2570 O   0  0  0  0  0  0  0  0  0  0  0  0
   -2.0210  -18.9240    3.4020 H   0  0  0  0  0  0  0  0  0  0  0  0
    2.0030  -21.2960    4.1810 O   0  0  0  0  0  0  0  0  0  0  0  0
    2.1760  -20.3460    4.2410 H   0  0  0  0  0  0  0  0  0  0  0  0
    1.4230  -26.4710    4.1000 O   0  0  0  0  0  0  0  0  0  0  0  0
    0.9510  -27.3100    3.9880 H   0  0  0  0  0  0  0  0  0  0  0  0
  1  2  1  0  0  0  0
  2  3  2  0  0  0  0
  3 24  1  0  0  0  0
  4  3  1  0  0  0  0
  4  7  1  0  0  0  0
  5  4  2  0  0  0  0
  6  1  2  0  0  0  0
  6  5  1  0  0  0  0
  7 11  2  0  0  0  0
  8  7  1  0  0  0  0
  8 26  1  0  0  0  0
  9  8  2  0  0  0  0
 10  5  1  0  0  0  0
 10  9  1  0  0  0  0
 12  9  1  0  0  0  0
 12 13  1  0  0  0  0
 14 13  2  0  0  0  0
 15 14  1  0  0  0  0
 16 17  1  0  0  0  0
 16 15  2  0  0  0  0
 17 12  2  0  0  0  0
 18 15  1  0  0  0  0
 18 19  1  0  0  0  0
 20 21  1  0  0  0  0
 20 16  1  0  0  0  0
 22 23  1  0  0  0  0
 22  1  1  0  0  0  0
 24 25  1  0  0  0  0
 27 26  1  0  0  0  0
M  END
>  <minimizedAffinity>
-8.96990204

$$$$

 OpenBabel10032415253D

 27 29  0  0  0  0  0  0  0  0999 V2000
    0.5560  -22.7350    3.4960 C   0  0  0  0  0  0  0  0  0  0  0  0
    1.4090  -23.7960    3.2100 C   0  0  0  0  0  3  0  0  0  0  0  0
    0.9570  -25.1000    3.4190 C   0  0  0  0  0  0  0  0  0  0  0  0
   -0.3360  -25.3420    3.9200 C   0  0  0  0  0  0  0  0  0  0  0  0
   -1.1810  -24.2660    4.2030 C   0  0  0  0  0  0  0  0  0  0  0  0
   -0.7330  -22.9580    3.9820 C   0  0  0  0  0  3  0  0  0  0  0  0
   -0.8400  -26.7060    4.1740 C   0  0  0  0  0  0  0  0  0  0  0  0
   -2.1950  -26.8230    4.7780 C   0  0  0  0  0  0  0  0  0  0  0  0
   -2.8980  -25.6970    5.0200 C   0  0  0  0  0  0  0  0  0  0  0  0
   -2.4570  -24.4170    4.7070 O   0  0  0  0  0  0  0  0  0  0  0  0
   -0.1880  -27.7150    3.9230 O   0  0  0  0  0  0  0  0  0  0  0  0
   -4.2250  -25.7530    5.6820 C   0  0  0  0  0  0  0  0  0  0  0  0
   -5.4070  -26.0070    4.9660 C   0  0  0  0  0  3  0  0  0  0  0  0
   -6.6400  -26.1400    5.6340 C   0  0  0  0  0  3  0  0  0  0  0  0
   -6.6870  -26.0290    7.0210 C   0  0  0  0  0  0  0  0  0  0  0  0
   -5.5200  -25.7810    7.7350 C   0  0  0  0  0  0  0  0  0  0  0  0
   -4.3050  -25.6240    7.0790 C   0  0  0  0  0  3  0  0  0  0  0  0
   -7.8500  -26.1610    7.7280 O   0  0  0  0  0  0  0  0  0  0  0  0
   -8.5840  -26.3030    7.1050 H   0  0  0  0  0  0  0  0  0  0  0  0
   -5.5300  -25.7030    9.0980 O   0  0  0  0  0  0  0  0  0  0  0  0
   -6.4590  -25.8370    9.3660 H   0  0  0  0  0  0  0  0  0  0  0  0
    0.9480  -21.4390    3.3210 O   0  0  0  0  0  0  0  0  0  0  0  0
    1.8670  -21.4110    3.0050 H   0  0  0  0  0  0  0  0  0  0  0  0
    1.7930  -26.1450    3.1390 O   0  0  0  0  0  0  0  0  0  0  0  0
    2.6510  -25.8480    2.8030 H   0  0  0  0  0  0  0  0  0  0  0  0
   -2.6330  -28.1070    5.0570 O   0  0  0  0  0  0  0  0  0  0  0  0
   -3.5360  -28.0840    5.4100 H   0  0  0  0  0  0  0  0  0  0  0  0
  1  6  1  0  0  0  0
  2  3  1  0  0  0  0
  2  1  2  0  0  0  0
  3  4  2  0  0  0  0
  4  7  1  0  0  0  0
  4  5  1  0  0  0  0
  5 10  1  0  0  0  0
  6  5  2  0  0  0  0
  7  8  1  0  0  0  0
  8  9  2  0  0  0  0
  8 26  1  0  0  0  0
  9 12  1  0  0  0  0
 10  9  1  0  0  0  0
 11  7  2  0  0  0  0
 12 17  1  0  0  0  0
 13 14  1  0  0  0  0
 13 12  2  0  0  0  0
 14 15  2  0  0  0  0
 15 18  1  0  0  0  0
 15 16  1  0  0  0  0
 16 20  1  0  0  0  0
 17 16  2  0  0  0  0
 19 18  1  0  0  0  0
 20 21  1  0  0  0  0
 22  1  1  0  0  0  0
 23 22  1  0  0  0  0
 24  3  1  0  0  0  0
 25 24  1  0  0  0  0
 26 27  1  0  0  0  0
M  END
>  <minimizedAffinity>
-8.66494846

$$$$

 OpenBabel10032415253D

 27 29  0  0  0  0  0  0  0  0999 V2000
   -5.3870  -26.0350    7.5320 C   0  0  0  0  0  0  0  0  0  0  0  0
   -5.9030  -26.9540    6.6220 C   0  0  0  0  0  3  0  0  0  0  0  0
   -5.1710  -27.2450    5.4690 C   0  0  0  0  0  0  0  0  0  0  0  0
   -3.9360  -26.6150    5.2220 C   0  0  0  0  0  0  0  0  0  0  0  0
   -3.4320  -25.6960    6.1450 C   0  0  0  0  0  0  0  0  0  0  0  0
   -4.1580  -25.4120    7.3070 C   0  0  0  0  0  3  0  0  0  0  0  0
   -3.1460  -26.8830    4.0050 C   0  0  0  0  0  0  0  0  0  0  0  0
   -1.8970  -26.0950    3.8250 C   0  0  0  0  0  0  0  0  0  0  0  0
   -1.5350  -25.2210    4.7870 C   0  0  0  0  0  0  0  0  0  0  0  0
   -2.2360  -25.0290    5.9710 O   0  0  0  0  0  0  0  0  0  0  0  0
   -3.4870  -27.7000    3.1540 O   0  0  0  0  0  0  0  0  0  0  0  0
   -0.3360  -24.3630    4.6270 C   0  0  0  0  0  0  0  0  0  0  0  0
    0.9570  -24.8220    4.9300 C   0  0  0  0  0  3  0  0  0  0  0  0
    2.0850  -24.0140    4.6860 C   0  0  0  0  0  3  0  0  0  0  0  0
    1.9180  -22.7480    4.1290 C   0  0  0  0  0  0  0  0  0  0  0  0
    0.6400  -22.2900    3.8250 C   0  0  0  0  0  0  0  0  0  0  0  0
   -0.4770  -23.0740    4.0870 C   0  0  0  0  0  3  0  0  0  0  0  0
    2.9720  -21.9220    3.8570 O   0  0  0  0  0  0  0  0  0  0  0  0
    3.7950  -22.3550    4.1430 H   0  0  0  0  0  0  0  0  0  0  0  0
    0.4480  -21.0690    3.2460 O   0  0  0  0  0  0  0  0  0  0  0  0
    1.3380  -20.6790    3.1450 H   0  0  0  0  0  0  0  0  0  0  0  0
   -6.0630  -25.7040    8.6700 O   0  0  0  0  0  0  0  0  0  0  0  0
   -6.9100  -26.1800    8.7030 H   0  0  0  0  0  0  0  0  0  0  0  0
   -5.6760  -28.1460    4.5750 O   0  0  0  0  0  0  0  0  0  0  0  0
   -6.5290  -28.5060    4.8570 H   0  0  0  0  0  0  0  0  0  0  0  0
   -1.1930  -26.3210    2.6530 O   0  0  0  0  0  0  0  0  0  0  0  0
   -0.3800  -25.7930    2.6440 H   0  0  0  0  0  0  0  0  0  0  0  0
  1 22  1  0  0  0  0
  2  1  2  0  0  0  0
  3  2  1  0  0  0  0
  4  3  2  0  0  0  0
  4  5  1  0  0  0  0
  5  6  2  0  0  0  0
  6  1  1  0  0  0  0
  7  4  1  0  0  0  0
  8  7  1  0  0  0  0
  8  9  2  0  0  0  0
  9 10  1  0  0  0  0
 10  5  1  0  0  0  0
 11  7  2  0  0  0  0
 12  9  1  0  0  0  0
 12 13  1  0  0  0  0
 14 13  2  0  0  0  0
 15 14  1  0  0  0  0
 16 17  1  0  0  0  0
 16 15  2  0  0  0  0
 17 12  2  0  0  0  0
 18 15  1  0  0  0  0
 18 19  1  0  0  0  0
 20 16  1  0  0  0  0
 21 20  1  0  0  0  0
 22 23  1  0  0  0  0
 24 25  1  0  0  0  0
 24  3  1  0  0  0  0
 26  8  1  0  0  0  0
 27 26  1  0  0  0  0
M  END
>  <minimizedAffinity>
-8.62177086

$$$$

 OpenBabel10032415253D

 27 29  0  0  0  0  0  0  0  0999 V2000
   -0.6540  -21.4970    3.7480 C   0  0  0  0  0  0  0  0  0  0  0  0
    0.7040  -21.8020    3.7510 C   0  0  0  0  0  3  0  0  0  0  0  0
    1.0930  -23.1430    3.7850 C   0  0  0  0  0  0  0  0  0  0  0  0
    0.1330  -24.1710    3.8270 C   0  0  0  0  0  0  0  0  0  0  0  0
   -1.2260  -23.8490    3.8230 C   0  0  0  0  0  0  0  0  0  0  0  0
   -1.6190  -22.5060    3.7760 C   0  0  0  0  0  3  0  0  0  0  0  0
    0.5080  -25.5970    3.8860 C   0  0  0  0  0  0  0  0  0  0  0  0
   -0.6010  -26.5820    4.0040 C   0  0  0  0  0  0  0  0  0  0  0  0
   -1.8730  -26.1320    4.0100 C   0  0  0  0  0  0  0  0  0  0  0  0
   -2.2290  -24.7950    3.8730 O   0  0  0  0  0  0  0  0  0  0  0  0
    1.6740  -25.9820    3.8560 O   0  0  0  0  0  0  0  0  0  0  0  0
   -3.0120  -27.0640    4.1930 C   0  0  0  0  0  0  0  0  0  0  0  0
   -3.3120  -27.6420    5.4380 C   0  0  0  0  0  3  0  0  0  0  0  0
   -4.4510  -28.4550    5.6000 C   0  0  0  0  0  3  0  0  0  0  0  0
   -5.2960  -28.6810    4.5160 C   0  0  0  0  0  0  0  0  0  0  0  0
   -5.0050  -28.1090    3.2830 C   0  0  0  0  0  0  0  0  0  0  0  0
   -3.8690  -27.3260    3.1120 C   0  0  0  0  0  3  0  0  0  0  0  0
   -6.4220  -29.4490    4.6120 O   0  0  0  0  0  0  0  0  0  0  0  0
   -6.4860  -29.8050    5.5150 H   0  0  0  0  0  0  0  0  0  0  0  0
   -5.8330  -28.2830    2.2110 O   0  0  0  0  0  0  0  0  0  0  0  0
   -6.5620  -28.8520    2.5270 H   0  0  0  0  0  0  0  0  0  0  0  0
   -1.0930  -20.2050    3.7250 O   0  0  0  0  0  0  0  0  0  0  0  0
   -0.3350  -19.5980    3.7330 H   0  0  0  0  0  0  0  0  0  0  0  0
    2.4260  -23.4450    3.7890 O   0  0  0  0  0  0  0  0  0  0  0  0
    2.9830  -22.6540    3.7600 H   0  0  0  0  0  0  0  0  0  0  0  0
   -0.2310  -27.9130    4.1100 O   0  0  0  0  0  0  0  0  0  0  0  0
   -1.0180  -28.4780    4.1440 H   0  0  0  0  0  0  0  0  0  0  0  0
  1  2  2  0  0  0  0
  1  6  1  0  0  0  0
  2  3  1  0  0  0  0
  3 24  1  0  0  0  0
  3  4  2  0  0  0  0
  4  7  1  0  0  0  0
  5  4  1  0  0  0  0
  5 10  1  0  0  0  0
  6  5  2  0  0  0  0
  7  8  1  0  0  0  0
  8  9  2  0  0  0  0
  8 26  1  0  0  0  0
  9 12  1  0  0  0  0
 10  9  1  0  0  0  0
 11  7  2  0  0  0  0
 12 13  1  0  0  0  0
 13 14  2  0  0  0  0
 15 18  1  0  0  0  0
 15 14  1  0  0  0  0
 16 15  2  0  0  0  0
 17 16  1  0  0  0  0
 17 12  2  0  0  0  0
 18 19  1  0  0  0  0
 20 21  1  0  0  0  0
 20 16  1  0  0  0  0
 22 23  1  0  0  0  0
 22  1  1  0  0  0  0
 25 24  1  0  0  0  0
 26 27  1  0  0  0  0
M  END
>  <minimizedAffinity>
-8.35575867

$$$$

 OpenBabel10032415253D

 27 29  0  0  0  0  0  0  0  0999 V2000
   14.9930  -19.1010   -0.9460 C   0  0  0  0  0  0  0  0  0  0  0  0
   13.8500  -18.6300   -1.5850 C   0  0  0  0  0  3  0  0  0  0  0  0
   12.9180  -19.5520   -2.0660 C   0  0  0  0  0  0  0  0  0  0  0  0
   13.1320  -20.9350   -1.9180 C   0  0  0  0  0  0  0  0  0  0  0  0
   14.2840  -21.3920   -1.2740 C   0  0  0  0  0  0  0  0  0  0  0  0
   15.2140  -20.4700   -0.7810 C   0  0  0  0  0  3  0  0  0  0  0  0
   12.1790  -21.9380   -2.4330 C   0  0  0  0  0  0  0  0  0  0  0  0
   12.5580  -23.3690   -2.2810 C   0  0  0  0  0  0  0  0  0  0  0  0
   13.7150  -23.6720   -1.6550 C   0  0  0  0  0  0  0  0  0  0  0  0
   14.5720  -22.7310   -1.0990 O   0  0  0  0  0  0  0  0  0  0  0  0
   11.1220  -21.6350   -2.9790 O   0  0  0  0  0  0  0  0  0  0  0  0
   14.1730  -25.0780   -1.5370 C   0  0  0  0  0  0  0  0  0  0  0  0
   14.4500  -25.8710   -2.6630 C   0  0  0  0  0  3  0  0  0  0  0  0
   14.9660  -27.1740   -2.5180 C   0  0  0  0  0  3  0  0  0  0  0  0
   15.2130  -27.6790   -1.2430 C   0  0  0  0  0  0  0  0  0  0  0  0
   14.9430  -26.8970   -0.1260 C   0  0  0  0  0  0  0  0  0  0  0  0
   14.4110  -25.6200   -0.2630 C   0  0  0  0  0  3  0  0  0  0  0  0
   15.7240  -28.9290   -1.0370 O   0  0  0  0  0  0  0  0  0  0  0  0
   15.8370  -29.3700   -1.8970 H   0  0  0  0  0  0  0  0  0  0  0  0
   15.2090  -27.3520    1.1340 O   0  0  0  0  0  0  0  0  0  0  0  0
   15.5710  -28.2520    1.0220 H   0  0  0  0  0  0  0  0  0  0  0  0
   15.9440  -18.2470   -0.4660 O   0  0  0  0  0  0  0  0  0  0  0  0
   15.6930  -17.3290   -0.6620 H   0  0  0  0  0  0  0  0  0  0  0  0
   11.7950  -19.0910   -2.6940 O   0  0  0  0  0  0  0  0  0  0  0  0
   11.7660  -18.1250   -2.7340 H   0  0  0  0  0  0  0  0  0  0  0  0
   11.6780  -24.2970   -2.8140 O   0  0  0  0  0  0  0  0  0  0  0  0
   11.9900  -25.1960   -2.6340 H   0  0  0  0  0  0  0  0  0  0  0  0
  1  6  1  0  0  0  0
  1 22  1  0  0  0  0
  2  1  2  0  0  0  0
  3  4  2  0  0  0  0
  3  2  1  0  0  0  0
  4  5  1  0  0  0  0
  5 10  1  0  0  0  0
  5  6  2  0  0  0  0
  7  8  1  0  0  0  0
  7  4  1  0  0  0  0
  8  9  2  0  0  0  0
  9 12  1  0  0  0  0
  9 10  1  0  0  0  0
 11  7  2  0  0  0  0
 12 17  1  0  0  0  0
 13 14  1  0  0  0  0
 13 12  2  0  0  0  0
 14 15  2  0  0  0  0
 15 18  1  0  0  0  0
 15 16  1  0  0  0  0
 16 20  1  0  0  0  0
 17 16  2  0  0  0  0
 19 18  1  0  0  0  0
 21 20  1  0  0  0  0
 23 22  1  0  0  0  0
 24  3  1  0  0  0  0
 25 24  1  0  0  0  0
 26 27  1  0  0  0  0
 26  8  1  0  0  0  0
M  END
>  <minimizedAffinity>
-8.27828598

$$$$

 OpenBabel10032415253D

 27 29  0  0  0  0  0  0  0  0999 V2000
    2.3050  -22.7060    4.3900 C   0  0  0  0  0  0  0  0  0  0  0  0
    2.3400  -24.0490    4.7560 C   0  0  0  0  0  3  0  0  0  0  0  0
    1.2170  -24.8420    4.5160 C   0  0  0  0  0  0  0  0  0  0  0  0
    0.0630  -24.2960    3.9240 C   0  0  0  0  0  0  0  0  0  0  0  0
    0.0430  -22.9470    3.5630 C   0  0  0  0  0  0  0  0  0  0  0  0
    1.1720  -22.1520    3.7910 C   0  0  0  0  0  3  0  0  0  0  0  0
   -1.1500  -25.0990    3.6760 C   0  0  0  0  0  0  0  0  0  0  0  0
   -2.3300  -24.3850    3.1150 C   0  0  0  0  0  0  0  0  0  0  0  0
   -2.2190  -23.0710    2.8310 C   0  0  0  0  0  0  0  0  0  0  0  0
   -1.0520  -22.3330    2.9890 O   0  0  0  0  0  0  0  0  0  0  0  0
   -1.2180  -26.3000    3.9230 O   0  0  0  0  0  0  0  0  0  0  0  0
   -3.3830  -22.2970    2.3340 C   0  0  0  0  0  0  0  0  0  0  0  0
   -4.1650  -21.4960    3.1840 C   0  0  0  0  0  3  0  0  0  0  0  0
   -5.2100  -20.7050    2.6680 C   0  0  0  0  0  3  0  0  0  0  0  0
   -5.4660  -20.7080    1.2990 C   0  0  0  0  0  0  0  0  0  0  0  0
   -4.6930  -21.4970    0.4540 C   0  0  0  0  0  0  0  0  0  0  0  0
   -3.6760  -22.2980    0.9600 C   0  0  0  0  0  3  0  0  0  0  0  0
   -6.4570  -19.9540    0.7370 O   0  0  0  0  0  0  0  0  0  0  0  0
   -6.9300  -19.4780    1.4410 H   0  0  0  0  0  0  0  0  0  0  0  0
   -4.8970  -21.4940   -0.8960 O   0  0  0  0  0  0  0  0  0  0  0  0
   -5.6410  -20.8800   -1.0520 H   0  0  0  0  0  0  0  0  0  0  0  0
    3.3690  -21.8800    4.6100 O   0  0  0  0  0  0  0  0  0  0  0  0
    4.0830  -22.3710    5.0520 H   0  0  0  0  0  0  0  0  0  0  0  0
    1.2490  -26.1610    4.8740 O   0  0  0  0  0  0  0  0  0  0  0  0
    2.0950  -26.4130    5.2710 H   0  0  0  0  0  0  0  0  0  0  0  0
   -3.4760  -25.1420    2.9350 O   0  0  0  0  0  0  0  0  0  0  0  0
   -4.1740  -24.6020    2.5340 H   0  0  0  0  0  0  0  0  0  0  0  0
  1 22  1  0  0  0  0
  1  2  1  0  0  0  0
  3  2  2  0  0  0  0
  3 24  1  0  0  0  0
  4  3  1  0  0  0  0
  5  6  1  0  0  0  0
  5  4  2  0  0  0  0
  6  1  2  0  0  0  0
  7 11  2  0  0  0  0
  7  4  1  0  0  0  0
  8  7  1  0  0  0  0
  9 10  1  0  0  0  0
  9  8  2  0  0  0  0
 10  5  1  0  0  0  0
 12  9  1  0  0  0  0
 12 13  1  0  0  0  0
 14 13  2  0  0  0  0
 15 14  1  0  0  0  0
 16 17  1  0  0  0  0
 16 15  2  0  0  0  0
 17 12  2  0  0  0  0
 18 15  1  0  0  0  0
 18 19  1  0  0  0  0
 20 16  1  0  0  0  0
 21 20  1  0  0  0  0
 22 23  1  0  0  0  0
 24 25  1  0  0  0  0
 26  8  1  0  0  0  0
 27 26  1  0  0  0  0
M  END
>  <minimizedAffinity>
-8.25022316

$$$$
