
 OpenBabel10032415253D

 27 29  0  0  0  0  0  0  0  0999 V2000
    1.5460  -24.0180    3.9970 C   0  0  0  0  0  0  0  0  0  0  0  0
    0.4610  -23.1530    3.8800 C   0  0  0  0  0  3  0  0  0  0  0  0
   -0.8210  -23.6920    3.7530 C   0  0  0  0  0  0  0  0  0  0  0  0
   -1.0160  -25.0860    3.7340 C   0  0  0  0  0  0  0  0  0  0  0  0
    0.0810  -25.9410    3.8530 C   0  0  0  0  0  0  0  0  0  0  0  0
    1.3660  -25.4020    3.9920 C   0  0  0  0  0  3  0  0  0  0  0  0
   -2.3540  -25.6900    3.5810 C   0  0  0  0  0  0  0  0  0  0  0  0
   -2.4180  -27.1750    3.4980 C   0  0  0  0  0  0  0  0  0  0  0  0
   -1.2740  -27.8820    3.6060 C   0  0  0  0  0  0  0  0  0  0  0  0
   -0.0250  -27.3170    3.8320 O   0  0  0  0  0  0  0  0  0  0  0  0
   -3.3830  -25.0240    3.5070 O   0  0  0  0  0  0  0  0  0  0  0  0
   -1.2730  -29.3580    3.4640 C   0  0  0  0  0  0  0  0  0  0  0  0
   -1.6110  -29.9920    2.2560 C   0  0  0  0  0  3  0  0  0  0  0  0
   -1.5170  -31.3920    2.1270 C   0  0  0  0  0  3  0  0  0  0  0  0
   -1.0740  -32.1560    3.2040 C   0  0  0  0  0  0  0  0  0  0  0  0
   -0.7350  -31.5320    4.4000 C   0  0  0  0  0  0  0  0  0  0  0  0
   -0.8500  -30.1550    4.5410 C   0  0  0  0  0  3  0  0  0  0  0  0
   -0.9490  -33.5150    3.1360 O   0  0  0  0  0  0  0  0  0  0  0  0
   -1.2440  -33.8160    2.2600 H   0  0  0  0  0  0  0  0  0  0  0  0
   -0.2640  -32.2510    5.4610 O   0  0  0  0  0  0  0  0  0  0  0  0
   -0.2570  -33.1840    5.1690 H   0  0  0  0  0  0  0  0  0  0  0  0
    2.8220  -23.5480    4.1120 O   0  0  0  0  0  0  0  0  0  0  0  0
    2.8210  -22.5770    4.0770 H   0  0  0  0  0  0  0  0  0  0  0  0
   -1.8870  -22.8450    3.6380 O   0  0  0  0  0  0  0  0  0  0  0  0
   -1.6210  -21.9140    3.6630 H   0  0  0  0  0  0  0  0  0  0  0  0
   -3.6750  -27.7250    3.3030 O   0  0  0  0  0  0  0  0  0  0  0  0
   -3.6200  -28.6920    3.3000 H   0  0  0  0  0  0  0  0  0  0  0  0
  1 22  1  0  0  0  0
  2  1  2  0  0  0  0
  3  2  1  0  0  0  0
  4  3  2  0  0  0  0
  4  5  1  0  0  0  0
  5  6  2  0  0  0  0
  6  1  1  0  0  0  0
  7  4  1  0  0  0  0
  8  7  1  0  0  0  0
  8  9  2  0  0  0  0
  9 10  1  0  0  0  0
 10  5  1  0  0  0  0
 11  7  2  0  0  0  0
 12  9  1  0  0  0  0
 12 17  1  0  0  0  0
 13 12  2  0  0  0  0
 14 13  1  0  0  0  0
 14 15  2  0  0  0  0
 15 16  1  0  0  0  0
 16 17  2  0  0  0  0
 16 20  1  0  0  0  0
 18 15  1  0  0  0  0
 19 18  1  0  0  0  0
 21 20  1  0  0  0  0
 23 22  1  0  0  0  0
 24 25  1  0  0  0  0
 24  3  1  0  0  0  0
 26  8  1  0  0  0  0
 27 26  1  0  0  0  0
M  END
>  <minimizedAffinity>
-9.11583996

$$$$
