
 OpenBabel10032415253D

 27 29  0  0  0  0  0  0  0  0999 V2000
   -4.6520  -27.9560    5.5970 C   0  0  0  0  0  0  0  0  0  0  0  0
   -4.6640  -28.8850    4.5610 C   0  0  0  0  0  3  0  0  0  0  0  0
   -3.6380  -28.8500    3.6130 C   0  0  0  0  0  0  0  0  0  0  0  0
   -2.6140  -27.8880    3.6960 C   0  0  0  0  0  0  0  0  0  0  0  0
   -2.6160  -26.9630    4.7420 C   0  0  0  0  0  0  0  0  0  0  0  0
   -3.6370  -27.0040    5.7000 C   0  0  0  0  0  3  0  0  0  0  0  0
   -1.5270  -27.8090    2.7010 C   0  0  0  0  0  0  0  0  0  0  0  0
   -0.5490  -26.6980    2.8580 C   0  0  0  0  0  0  0  0  0  0  0  0
   -0.6800  -25.8590    3.9060 C   0  0  0  0  0  0  0  0  0  0  0  0
   -1.6560  -25.9830    4.8880 O   0  0  0  0  0  0  0  0  0  0  0  0
   -1.4180  -28.5990    1.7680 O   0  0  0  0  0  0  0  0  0  0  0  0
    0.2260  -24.6970    4.0720 C   0  0  0  0  0  0  0  0  0  0  0  0
    1.5060  -24.8220    4.6380 C   0  0  0  0  0  3  0  0  0  0  0  0
    2.3770  -23.7170    4.7030 C   0  0  0  0  0  3  0  0  0  0  0  0
    1.9690  -22.4870    4.1910 C   0  0  0  0  0  0  0  0  0  0  0  0
    0.7040  -22.3590    3.6270 C   0  0  0  0  0  0  0  0  0  0  0  0
   -0.1680  -23.4400    3.5830 C   0  0  0  0  0  3  0  0  0  0  0  0
    2.7710  -21.3810    4.2130 O   0  0  0  0  0  0  0  0  0  0  0  0
    3.6070  -21.6070    4.6570 H   0  0  0  0  0  0  0  0  0  0  0  0
    0.2900  -21.1760    3.0850 O   0  0  0  0  0  0  0  0  0  0  0  0
    1.0310  -20.5510    3.2120 H   0  0  0  0  0  0  0  0  0  0  0  0
   -5.6330  -27.9350    6.5460 O   0  0  0  0  0  0  0  0  0  0  0  0
   -6.2930  -28.6240    6.3550 H   0  0  0  0  0  0  0  0  0  0  0  0
   -3.6480  -29.7610    2.5940 O   0  0  0  0  0  0  0  0  0  0  0  0
   -4.4020  -30.3650    2.6480 H   0  0  0  0  0  0  0  0  0  0  0  0
    0.4360  -26.6070    1.8870 O   0  0  0  0  0  0  0  0  0  0  0  0
    1.0430  -25.8800    2.0940 H   0  0  0  0  0  0  0  0  0  0  0  0
  1  6  1  0  0  0  0
  1 22  1  0  0  0  0
  2  1  2  0  0  0  0
  3  4  2  0  0  0  0
  3  2  1  0  0  0  0
  4  5  1  0  0  0  0
  5 10  1  0  0  0  0
  5  6  2  0  0  0  0
  7  8  1  0  0  0  0
  7  4  1  0  0  0  0
  8  9  2  0  0  0  0
  9 12  1  0  0  0  0
  9 10  1  0  0  0  0
 11  7  2  0  0  0  0
 12 13  1  0  0  0  0
 13 14  2  0  0  0  0
 15 18  1  0  0  0  0
 15 14  1  0  0  0  0
 16 15  2  0  0  0  0
 17 16  1  0  0  0  0
 17 12  2  0  0  0  0
 18 19  1  0  0  0  0
 20 21  1  0  0  0  0
 20 16  1  0  0  0  0
 23 22  1  0  0  0  0
 24 25  1  0  0  0  0
 24  3  1  0  0  0  0
 26 27  1  0  0  0  0
 26  8  1  0  0  0  0
M  END
>  <minimizedAffinity>
-10.2133837

$$$$
