
 OpenBabel10112400443D

 27 29  0  0  0  0  0  0  0  0999 V2000
  -46.3530   27.1360   21.6760 C   0  0  0  0  0  0  0  0  0  0  0  0
  -47.7290   27.5170   21.2780 C   0  0  0  0  0  3  0  0  0  0  0  0
  -47.9640   28.1680   20.0320 C   0  0  0  0  0  0  0  0  0  0  0  0
  -46.8130   28.4580   19.1420 C   0  0  0  0  0  0  0  0  0  0  0  0
  -45.5140   28.1030   19.5090 C   0  0  0  0  0  0  0  0  0  0  0  0
  -45.2680   27.4270   20.8030 C   0  0  0  0  0  3  0  0  0  0  0  0
  -46.9690   29.1410   17.8080 C   0  0  0  0  0  0  0  0  0  0  0  0
  -45.7550   29.3690   17.0020 C   0  0  0  0  0  0  0  0  0  0  0  0
  -44.5580   28.9900   17.4760 C   0  0  0  0  0  0  0  0  0  0  0  0
  -44.4320   28.3800   18.6680 O   0  0  0  0  0  0  0  0  0  0  0  0
  -48.0550   29.5030   17.3840 O   0  0  0  0  0  0  0  0  0  0  0  0
  -43.2760   29.2120   16.6990 C   0  0  0  0  0  0  0  0  0  0  0  0
  -42.7200   28.0680   15.9340 C   0  0  0  0  0  3  0  0  0  0  0  0
  -41.5350   28.2110   15.1910 C   0  0  0  0  0  3  0  0  0  0  0  0
  -40.8230   29.5090   15.1590 C   0  0  0  0  0  0  0  0  0  0  0  0
  -41.3370   30.6150   15.8920 C   0  0  0  0  0  0  0  0  0  0  0  0
  -42.5830   30.4570   16.6860 C   0  0  0  0  0  3  0  0  0  0  0  0
  -39.6530   29.6320   14.4070 O   0  0  0  0  0  0  0  0  0  0  0  0
  -39.3250   28.8960   13.9280 H   0  0  0  0  0  0  0  0  0  0  0  0
  -40.6540   31.8340   15.8520 O   0  0  0  0  0  0  0  0  0  0  0  0
  -39.8700   31.9150   15.3450 H   0  0  0  0  0  0  0  0  0  0  0  0
  -46.1510   26.4980   22.9030 O   0  0  0  0  0  0  0  0  0  0  0  0
  -46.8810   26.3160   23.4620 H   0  0  0  0  0  0  0  0  0  0  0  0
  -49.2530   28.5360   19.6390 O   0  0  0  0  0  0  0  0  0  0  0  0
  -49.9820   28.3550   20.1990 H   0  0  0  0  0  0  0  0  0  0  0  0
  -45.8500   29.9390   15.7920 O   0  0  0  0  0  0  0  0  0  0  0  0
  -46.6870   30.2040   15.4620 H   0  0  0  0  0  0  0  0  0  0  0  0
  1 22  1  0  0  0  0
  2  1  1  0  0  0  0
  3  2  2  0  0  0  0
  4  5  2  0  0  0  0
  4  3  1  0  0  0  0
  5  6  1  0  0  0  0
  6  1  2  0  0  0  0
  7  4  1  0  0  0  0
  8  9  2  0  0  0  0
  8  7  1  0  0  0  0
  9 10  1  0  0  0  0
 10  5  1  0  0  0  0
 11  7  2  0  0  0  0
 12  9  1  0  0  0  0
 13 12  2  0  0  0  0
 14 13  1  0  0  0  0
 15 14  2  0  0  0  0
 15 16  1  0  0  0  0
 16 17  2  0  0  0  0
 17 12  1  0  0  0  0
 18 15  1  0  0  0  0
 19 18  1  0  0  0  0
 20 16  1  0  0  0  0
 21 20  1  0  0  0  0
 22 23  1  0  0  0  0
 24  3  1  0  0  0  0
 24 25  1  0  0  0  0
 26  8  1  0  0  0  0
 27 26  1  0  0  0  0
M  END
>  <minimizedAffinity>
-8.78993034

$$$$

 OpenBabel10112400443D

 27 29  0  0  0  0  0  0  0  0999 V2000
  -41.7250   33.5830   17.5130 C   0  0  0  0  0  0  0  0  0  0  0  0
  -41.0930   33.0220   16.2970 C   0  0  0  0  0  3  0  0  0  0  0  0
  -41.3820   31.6880   15.8850 C   0  0  0  0  0  0  0  0  0  0  0  0
  -42.3230   30.8720   16.6910 C   0  0  0  0  0  0  0  0  0  0  0  0
  -42.9220   31.3920   17.8390 C   0  0  0  0  0  0  0  0  0  0  0  0
  -42.6220   32.7780   18.2680 C   0  0  0  0  0  3  0  0  0  0  0  0
  -42.6860   29.4550   16.3300 C   0  0  0  0  0  0  0  0  0  0  0  0
  -43.6400   28.7430   17.1990 C   0  0  0  0  0  0  0  0  0  0  0  0
  -44.1370   29.3530   18.2860 C   0  0  0  0  0  0  0  0  0  0  0  0
  -43.8060   30.6200   18.5980 O   0  0  0  0  0  0  0  0  0  0  0  0
  -42.2200   28.8920   15.3520 O   0  0  0  0  0  0  0  0  0  0  0  0
  -45.1090   28.6670   19.2240 C   0  0  0  0  0  0  0  0  0  0  0  0
  -44.5520   27.7670   20.2650 C   0  0  0  0  0  3  0  0  0  0  0  0
  -45.4030   27.1030   21.1680 C   0  0  0  0  0  3  0  0  0  0  0  0
  -46.8690   27.2940   21.0940 C   0  0  0  0  0  0  0  0  0  0  0  0
  -47.4200   28.1480   20.0980 C   0  0  0  0  0  0  0  0  0  0  0  0
  -46.5210   28.8380   19.1390 C   0  0  0  0  0  3  0  0  0  0  0  0
  -47.6940   26.6330   22.0060 O   0  0  0  0  0  0  0  0  0  0  0  0
  -47.3180   26.0740   22.6570 H   0  0  0  0  0  0  0  0  0  0  0  0
  -48.8070   28.3190   20.0420 O   0  0  0  0  0  0  0  0  0  0  0  0
  -49.3590   27.8760   20.6560 H   0  0  0  0  0  0  0  0  0  0  0  0
  -41.4250   34.8930   17.8940 O   0  0  0  0  0  0  0  0  0  0  0  0
  -40.8310   35.4060   17.3820 H   0  0  0  0  0  0  0  0  0  0  0  0
  -40.7960   31.1410   14.7410 O   0  0  0  0  0  0  0  0  0  0  0  0
  -40.2020   31.6530   14.2290 H   0  0  0  0  0  0  0  0  0  0  0  0
  -44.0210   27.4940   16.8960 O   0  0  0  0  0  0  0  0  0  0  0  0
  -43.6730   27.0680   16.1370 H   0  0  0  0  0  0  0  0  0  0  0  0
  1 22  1  0  0  0  0
  1  6  1  0  0  0  0
  2  1  2  0  0  0  0
  3  2  1  0  0  0  0
  3  4  2  0  0  0  0
  4  5  1  0  0  0  0
  5  6  2  0  0  0  0
  5 10  1  0  0  0  0
  7  4  1  0  0  0  0
  7  8  1  0  0  0  0
  8  9  2  0  0  0  0
  9 10  1  0  0  0  0
  9 12  1  0  0  0  0
 11  7  2  0  0  0  0
 12 13  1  0  0  0  0
 13 14  2  0  0  0  0
 15 14  1  0  0  0  0
 15 18  1  0  0  0  0
 16 15  2  0  0  0  0
 17 12  2  0  0  0  0
 17 16  1  0  0  0  0
 18 19  1  0  0  0  0
 20 16  1  0  0  0  0
 20 21  1  0  0  0  0
 23 22  1  0  0  0  0
 24  3  1  0  0  0  0
 25 24  1  0  0  0  0
 26  8  1  0  0  0  0
 27 26  1  0  0  0  0
M  END
>  <minimizedAffinity>
-8.24143028

$$$$

 OpenBabel10112400443D

 27 29  0  0  0  0  0  0  0  0999 V2000
  -40.8560   25.7570   14.8780 C   0  0  0  0  0  0  0  0  0  0  0  0
  -40.0170   26.9140   14.4860 C   0  0  0  0  0  3  0  0  0  0  0  0
  -40.3810   28.2340   14.8830 C   0  0  0  0  0  0  0  0  0  0  0  0
  -41.6090   28.4320   15.6920 C   0  0  0  0  0  0  0  0  0  0  0  0
  -42.4050   27.3490   16.0640 C   0  0  0  0  0  0  0  0  0  0  0  0
  -42.0290   25.9770   15.6530 C   0  0  0  0  0  3  0  0  0  0  0  0
  -42.0670   29.7910   16.1550 C   0  0  0  0  0  0  0  0  0  0  0  0
  -43.2980   29.8670   16.9630 C   0  0  0  0  0  0  0  0  0  0  0  0
  -43.9830   28.7470   17.2430 C   0  0  0  0  0  0  0  0  0  0  0  0
  -43.5630   27.5400   16.8250 O   0  0  0  0  0  0  0  0  0  0  0  0
  -41.4550   30.8120   15.8850 O   0  0  0  0  0  0  0  0  0  0  0  0
  -45.2620   28.7650   18.0550 C   0  0  0  0  0  0  0  0  0  0  0  0
  -46.5290   29.0790   17.3500 C   0  0  0  0  0  3  0  0  0  0  0  0
  -47.7500   29.1080   18.0480 C   0  0  0  0  0  3  0  0  0  0  0  0
  -47.7880   28.8240   19.5010 C   0  0  0  0  0  0  0  0  0  0  0  0
  -46.5820   28.5280   20.1950 C   0  0  0  0  0  0  0  0  0  0  0  0
  -45.2930   28.5090   19.4570 C   0  0  0  0  0  3  0  0  0  0  0  0
  -49.0120   28.8480   20.1720 O   0  0  0  0  0  0  0  0  0  0  0  0
  -49.8000   29.0440   19.7040 H   0  0  0  0  0  0  0  0  0  0  0  0
  -46.6350   28.2600   21.5660 O   0  0  0  0  0  0  0  0  0  0  0  0
  -47.4580   28.2760   22.0150 H   0  0  0  0  0  0  0  0  0  0  0  0
  -40.4780   24.4740   14.4770 O   0  0  0  0  0  0  0  0  0  0  0  0
  -39.7010   24.3530   13.9660 H   0  0  0  0  0  0  0  0  0  0  0  0
  -39.6030   29.3380   14.5230 O   0  0  0  0  0  0  0  0  0  0  0  0
  -38.8270   29.2170   14.0130 H   0  0  0  0  0  0  0  0  0  0  0  0
  -43.7230   31.0500   17.4290 O   0  0  0  0  0  0  0  0  0  0  0  0
  -43.2440   31.8320   17.2320 H   0  0  0  0  0  0  0  0  0  0  0  0
  1  6  1  0  0  0  0
  2  1  2  0  0  0  0
  2  3  1  0  0  0  0
  3  4  2  0  0  0  0
  4  5  1  0  0  0  0
  4  7  1  0  0  0  0
  5 10  1  0  0  0  0
  6  5  2  0  0  0  0
  7  8  1  0  0  0  0
  8  9  2  0  0  0  0
  8 26  1  0  0  0  0
  9 12  1  0  0  0  0
 10  9  1  0  0  0  0
 11  7  2  0  0  0  0
 12 17  1  0  0  0  0
 13 14  1  0  0  0  0
 13 12  2  0  0  0  0
 14 15  2  0  0  0  0
 15 18  1  0  0  0  0
 15 16  1  0  0  0  0
 16 20  1  0  0  0  0
 17 16  2  0  0  0  0
 19 18  1  0  0  0  0
 20 21  1  0  0  0  0
 22  1  1  0  0  0  0
 23 22  1  0  0  0  0
 24  3  1  0  0  0  0
 25 24  1  0  0  0  0
 27 26  1  0  0  0  0
M  END
>  <minimizedAffinity>
-8.13950729

$$$$

 OpenBabel10112400443D

 27 29  0  0  0  0  0  0  0  0999 V2000
  -41.4610   27.5300   15.3010 C   0  0  0  0  0  0  0  0  0  0  0  0
  -42.8970   27.1730   15.2150 C   0  0  0  0  0  3  0  0  0  0  0  0
  -43.4670   26.7800   13.9690 C   0  0  0  0  0  0  0  0  0  0  0  0
  -42.6040   26.7330   12.7630 C   0  0  0  0  0  0  0  0  0  0  0  0
  -41.2510   27.0680   12.8350 C   0  0  0  0  0  0  0  0  0  0  0  0
  -40.6570   27.4770   14.1290 C   0  0  0  0  0  3  0  0  0  0  0  0
  -43.1220   26.3270   11.4080 C   0  0  0  0  0  0  0  0  0  0  0  0
  -42.1700   26.3070   10.2820 C   0  0  0  0  0  0  0  0  0  0  0  0
  -40.8930   26.6660   10.4810 C   0  0  0  0  0  0  0  0  0  0  0  0
  -40.4420   27.0240   11.6970 O   0  0  0  0  0  0  0  0  0  0  0  0
  -44.2880   26.0190   11.2210 O   0  0  0  0  0  0  0  0  0  0  0  0
  -39.8740   26.6790    9.3600 C   0  0  0  0  0  0  0  0  0  0  0  0
  -39.0650   25.4540    9.1410 C   0  0  0  0  0  3  0  0  0  0  0  0
  -38.1050   25.4030    8.1140 C   0  0  0  0  0  3  0  0  0  0  0  0
  -37.8890   26.5730    7.2320 C   0  0  0  0  0  0  0  0  0  0  0  0
  -38.6500   27.7580    7.4320 C   0  0  0  0  0  0  0  0  0  0  0  0
  -39.6540   27.8140    8.5240 C   0  0  0  0  0  3  0  0  0  0  0  0
  -36.9370   26.4970    6.2130 O   0  0  0  0  0  0  0  0  0  0  0  0
  -36.4420   25.7110    6.0920 H   0  0  0  0  0  0  0  0  0  0  0  0
  -38.4340   28.8540    6.5910 O   0  0  0  0  0  0  0  0  0  0  0  0
  -37.7970   28.8010    5.9060 H   0  0  0  0  0  0  0  0  0  0  0  0
  -40.9280   27.9120   16.5350 O   0  0  0  0  0  0  0  0  0  0  0  0
  -41.4760   27.9400   17.2940 H   0  0  0  0  0  0  0  0  0  0  0  0
  -44.8180   26.4390   13.8670 O   0  0  0  0  0  0  0  0  0  0  0  0
  -45.3660   26.4670   14.6260 H   0  0  0  0  0  0  0  0  0  0  0  0
  -42.5770   25.9170    9.0650 O   0  0  0  0  0  0  0  0  0  0  0  0
  -43.4700   25.6670    8.9270 H   0  0  0  0  0  0  0  0  0  0  0  0
  1 22  1  0  0  0  0
  2  1  1  0  0  0  0
  3  2  2  0  0  0  0
  4  5  2  0  0  0  0
  4  3  1  0  0  0  0
  5  6  1  0  0  0  0
  6  1  2  0  0  0  0
  7  4  1  0  0  0  0
  8  9  2  0  0  0  0
  8  7  1  0  0  0  0
  9 10  1  0  0  0  0
 10  5  1  0  0  0  0
 11  7  2  0  0  0  0
 12  9  1  0  0  0  0
 13 12  1  0  0  0  0
 14 13  2  0  0  0  0
 15 16  2  0  0  0  0
 15 14  1  0  0  0  0
 16 17  1  0  0  0  0
 17 12  2  0  0  0  0
 18 15  1  0  0  0  0
 19 18  1  0  0  0  0
 20 16  1  0  0  0  0
 21 20  1  0  0  0  0
 22 23  1  0  0  0  0
 24  3  1  0  0  0  0
 24 25  1  0  0  0  0
 26  8  1  0  0  0  0
 27 26  1  0  0  0  0
M  END
>  <minimizedAffinity>
-7.80966234

$$$$

 OpenBabel10112400443D

 27 29  0  0  0  0  0  0  0  0999 V2000
  -43.5450   26.4540   11.8980 C   0  0  0  0  0  0  0  0  0  0  0  0
  -42.0840   26.6660   12.0230 C   0  0  0  0  0  3  0  0  0  0  0  0
  -41.5370   27.2400   13.2070 C   0  0  0  0  0  0  0  0  0  0  0  0
  -42.4520   27.6220   14.3120 C   0  0  0  0  0  0  0  0  0  0  0  0
  -43.8290   27.4270   14.2030 C   0  0  0  0  0  0  0  0  0  0  0  0
  -44.3980   26.8310   12.9720 C   0  0  0  0  0  3  0  0  0  0  0  0
  -41.9620   28.2330   15.5990 C   0  0  0  0  0  0  0  0  0  0  0  0
  -42.9610   28.5630   16.6320 C   0  0  0  0  0  0  0  0  0  0  0  0
  -44.2630   28.3370   16.3980 C   0  0  0  0  0  0  0  0  0  0  0  0
  -44.6880   27.7890   15.2450 O   0  0  0  0  0  0  0  0  0  0  0  0
  -40.7800   28.4560   15.8060 O   0  0  0  0  0  0  0  0  0  0  0  0
  -45.3350   28.6700   17.4150 C   0  0  0  0  0  0  0  0  0  0  0  0
  -46.6690   29.0810   16.9100 C   0  0  0  0  0  3  0  0  0  0  0  0
  -47.7070   29.3980   17.8040 C   0  0  0  0  0  3  0  0  0  0  0  0
  -47.4840   29.3260   19.2660 C   0  0  0  0  0  0  0  0  0  0  0  0
  -46.2100   28.9410   19.7680 C   0  0  0  0  0  0  0  0  0  0  0  0
  -45.1130   28.6170   18.8220 C   0  0  0  0  0  3  0  0  0  0  0  0
  -48.5320   29.6370   20.1360 O   0  0  0  0  0  0  0  0  0  0  0  0
  -49.3670   29.8890   19.7930 H   0  0  0  0  0  0  0  0  0  0  0  0
  -46.0160   28.8760   21.1520 O   0  0  0  0  0  0  0  0  0  0  0  0
  -46.7200   29.0840   21.7340 H   0  0  0  0  0  0  0  0  0  0  0  0
  -44.0530   25.8900   10.7260 O   0  0  0  0  0  0  0  0  0  0  0  0
  -43.4720   25.6490   10.0310 H   0  0  0  0  0  0  0  0  0  0  0  0
  -40.1620   27.4480   13.3440 O   0  0  0  0  0  0  0  0  0  0  0  0
  -39.5820   27.2090   12.6490 H   0  0  0  0  0  0  0  0  0  0  0  0
  -42.5670   29.0740   17.8080 O   0  0  0  0  0  0  0  0  0  0  0  0
  -41.6580   29.2320   17.9700 H   0  0  0  0  0  0  0  0  0  0  0  0
  1  2  2  0  0  0  0
  1  6  1  0  0  0  0
  2  3  1  0  0  0  0
  3 24  1  0  0  0  0
  3  4  2  0  0  0  0
  4  7  1  0  0  0  0
  5  4  1  0  0  0  0
  5 10  1  0  0  0  0
  6  5  2  0  0  0  0
  7 11  2  0  0  0  0
  7  8  1  0  0  0  0
  8 26  1  0  0  0  0
  9  8  2  0  0  0  0
  9 12  1  0  0  0  0
 10  9  1  0  0  0  0
 12 17  1  0  0  0  0
 13 12  2  0  0  0  0
 13 14  1  0  0  0  0
 14 15  2  0  0  0  0
 15 16  1  0  0  0  0
 15 18  1  0  0  0  0
 16 20  1  0  0  0  0
 17 16  2  0  0  0  0
 19 18  1  0  0  0  0
 20 21  1  0  0  0  0
 22  1  1  0  0  0  0
 23 22  1  0  0  0  0
 25 24  1  0  0  0  0
 26 27  1  0  0  0  0
M  END
>  <minimizedAffinity>
-7.79722548

$$$$

 OpenBabel10112400443D

 27 29  0  0  0  0  0  0  0  0999 V2000
  -50.2690   25.3010   -3.2080 C   0  0  0  0  0  0  0  0  0  0  0  0
  -49.2470   26.3640   -3.3410 C   0  0  0  0  0  3  0  0  0  0  0  0
  -48.0320   26.2930   -2.5980 C   0  0  0  0  0  0  0  0  0  0  0  0
  -47.8080   25.1390   -1.6920 C   0  0  0  0  0  0  0  0  0  0  0  0
  -48.7660   24.1330   -1.5600 C   0  0  0  0  0  0  0  0  0  0  0  0
  -50.0290   24.2070   -2.3320 C   0  0  0  0  0  3  0  0  0  0  0  0
  -46.5540   24.9810   -0.8710 C   0  0  0  0  0  0  0  0  0  0  0  0
  -46.4360   23.7880   -0.0130 C   0  0  0  0  0  0  0  0  0  0  0  0
  -47.4390   22.8980    0.0340 C   0  0  0  0  0  0  0  0  0  0  0  0
  -48.5520   23.0480   -0.7050 O   0  0  0  0  0  0  0  0  0  0  0  0
  -45.6500   25.8000   -0.8990 O   0  0  0  0  0  0  0  0  0  0  0  0
  -47.3790   21.6620    0.9090 C   0  0  0  0  0  0  0  0  0  0  0  0
  -47.4630   21.8450    2.3790 C   0  0  0  0  0  3  0  0  0  0  0  0
  -47.4170   20.7370    3.2440 C   0  0  0  0  0  3  0  0  0  0  0  0
  -47.2860   19.3670    2.6980 C   0  0  0  0  0  0  0  0  0  0  0  0
  -47.1980   19.1720    1.2910 C   0  0  0  0  0  0  0  0  0  0  0  0
  -47.2350   20.3450    0.3820 C   0  0  0  0  0  3  0  0  0  0  0  0
  -47.2520   18.2790    3.5740 O   0  0  0  0  0  0  0  0  0  0  0  0
  -47.3110   18.4210    4.4990 H   0  0  0  0  0  0  0  0  0  0  0  0
  -47.0760   17.8720    0.7910 O   0  0  0  0  0  0  0  0  0  0  0  0
  -47.0550   17.1430    1.3810 H   0  0  0  0  0  0  0  0  0  0  0  0
  -51.4510   25.3960   -3.9480 O   0  0  0  0  0  0  0  0  0  0  0  0
  -51.5880   26.1260   -4.5200 H   0  0  0  0  0  0  0  0  0  0  0  0
  -47.0550   27.2850   -2.7090 O   0  0  0  0  0  0  0  0  0  0  0  0
  -47.1930   28.0150   -3.2800 H   0  0  0  0  0  0  0  0  0  0  0  0
  -45.3220   23.5870    0.7070 O   0  0  0  0  0  0  0  0  0  0  0  0
  -44.6230   24.2100    0.6730 H   0  0  0  0  0  0  0  0  0  0  0  0
  1  6  1  0  0  0  0
  2  1  2  0  0  0  0
  2  3  1  0  0  0  0
  3  4  2  0  0  0  0
  4  5  1  0  0  0  0
  4  7  1  0  0  0  0
  5 10  1  0  0  0  0
  6  5  2  0  0  0  0
  7  8  1  0  0  0  0
  8  9  2  0  0  0  0
  8 26  1  0  0  0  0
  9 12  1  0  0  0  0
 10  9  1  0  0  0  0
 11  7  2  0  0  0  0
 12 13  1  0  0  0  0
 13 14  2  0  0  0  0
 15 14  1  0  0  0  0
 15 18  1  0  0  0  0
 16 15  2  0  0  0  0
 17 12  2  0  0  0  0
 17 16  1  0  0  0  0
 18 19  1  0  0  0  0
 20 16  1  0  0  0  0
 20 21  1  0  0  0  0
 22  1  1  0  0  0  0
 23 22  1  0  0  0  0
 24  3  1  0  0  0  0
 25 24  1  0  0  0  0
 27 26  1  0  0  0  0
M  END
>  <minimizedAffinity>
-7.5904398

$$$$

 OpenBabel10112400443D

 27 29  0  0  0  0  0  0  0  0999 V2000
  -51.0720   19.9050    4.2780 C   0  0  0  0  0  0  0  0  0  0  0  0
  -50.1200   18.7980    4.5260 C   0  0  0  0  0  3  0  0  0  0  0  0
  -48.8310   18.8060    3.9150 C   0  0  0  0  0  0  0  0  0  0  0  0
  -48.4590   19.9380    3.0310 C   0  0  0  0  0  0  0  0  0  0  0  0
  -49.3500   20.9850    2.7920 C   0  0  0  0  0  0  0  0  0  0  0  0
  -50.6890   20.9770    3.4250 C   0  0  0  0  0  3  0  0  0  0  0  0
  -47.1200   20.0290    2.3470 C   0  0  0  0  0  0  0  0  0  0  0  0
  -46.8560   21.2060    1.4990 C   0  0  0  0  0  0  0  0  0  0  0  0
  -47.8050   22.1400    1.3390 C   0  0  0  0  0  0  0  0  0  0  0  0
  -48.9970   22.0490    1.9570 O   0  0  0  0  0  0  0  0  0  0  0  0
  -46.2620   19.1700    2.4760 O   0  0  0  0  0  0  0  0  0  0  0  0
  -47.5970   23.3620    0.4680 C   0  0  0  0  0  0  0  0  0  0  0  0
  -48.6350   23.6810   -0.5440 C   0  0  0  0  0  3  0  0  0  0  0  0
  -48.5000   24.8040   -1.3800 C   0  0  0  0  0  3  0  0  0  0  0  0
  -47.3180   25.6880   -1.2620 C   0  0  0  0  0  0  0  0  0  0  0  0
  -46.3100   25.3940   -0.3020 C   0  0  0  0  0  0  0  0  0  0  0  0
  -46.4490   24.2010    0.5710 C   0  0  0  0  0  3  0  0  0  0  0  0
  -47.2100   26.8030   -2.0950 O   0  0  0  0  0  0  0  0  0  0  0  0
  -47.8810   26.9860   -2.7230 H   0  0  0  0  0  0  0  0  0  0  0  0
  -45.2000   26.2390   -0.2020 O   0  0  0  0  0  0  0  0  0  0  0  0
  -45.1290   26.9880   -0.7620 H   0  0  0  0  0  0  0  0  0  0  0  0
  -52.3280   19.8720    4.8880 O   0  0  0  0  0  0  0  0  0  0  0  0
  -52.5590   19.1560    5.4470 H   0  0  0  0  0  0  0  0  0  0  0  0
  -47.9190   17.7710    4.1360 O   0  0  0  0  0  0  0  0  0  0  0  0
  -48.1500   17.0550    4.6940 H   0  0  0  0  0  0  0  0  0  0  0  0
  -45.6640   21.3480    0.9000 O   0  0  0  0  0  0  0  0  0  0  0  0
  -45.0020   20.6940    1.0120 H   0  0  0  0  0  0  0  0  0  0  0  0
  1  2  1  0  0  0  0
  1 22  1  0  0  0  0
  3 24  1  0  0  0  0
  3  2  2  0  0  0  0
  4  3  1  0  0  0  0
  5  4  2  0  0  0  0
  5  6  1  0  0  0  0
  6  1  2  0  0  0  0
  7 11  2  0  0  0  0
  7  4  1  0  0  0  0
  8  7  1  0  0  0  0
  9  8  2  0  0  0  0
  9 10  1  0  0  0  0
 10  5  1  0  0  0  0
 12 17  1  0  0  0  0
 12  9  1  0  0  0  0
 13 12  2  0  0  0  0
 14 15  2  0  0  0  0
 14 13  1  0  0  0  0
 15 16  1  0  0  0  0
 16 20  1  0  0  0  0
 16 17  2  0  0  0  0
 18 15  1  0  0  0  0
 19 18  1  0  0  0  0
 21 20  1  0  0  0  0
 22 23  1  0  0  0  0
 24 25  1  0  0  0  0
 26 27  1  0  0  0  0
 26  8  1  0  0  0  0
M  END
>  <minimizedAffinity>
-7.31188536

$$$$

 OpenBabel10112400443D

 27 29  0  0  0  0  0  0  0  0999 V2000
  -47.9270   28.3820   19.7530 C   0  0  0  0  0  0  0  0  0  0  0  0
  -47.4600   27.5620   20.8950 C   0  0  0  0  0  3  0  0  0  0  0  0
  -46.1130   27.6600   21.3490 C   0  0  0  0  0  0  0  0  0  0  0  0
  -45.1870   28.5960   20.6640 C   0  0  0  0  0  0  0  0  0  0  0  0
  -45.6180   29.3720   19.5870 C   0  0  0  0  0  0  0  0  0  0  0  0
  -47.0180   29.2700   19.1130 C   0  0  0  0  0  3  0  0  0  0  0  0
  -43.7480   28.7650   21.0780 C   0  0  0  0  0  0  0  0  0  0  0  0
  -42.9230   29.7320   20.3300 C   0  0  0  0  0  0  0  0  0  0  0  0
  -43.4560   30.4090   19.3020 C   0  0  0  0  0  0  0  0  0  0  0  0
  -44.7420   30.2500   18.9430 O   0  0  0  0  0  0  0  0  0  0  0  0
  -43.2580   28.1360   22.0020 O   0  0  0  0  0  0  0  0  0  0  0  0
  -42.6530   31.4030   18.4880 C   0  0  0  0  0  0  0  0  0  0  0  0
  -41.8490   30.8840   17.3530 C   0  0  0  0  0  3  0  0  0  0  0  0
  -41.0860   31.7580   16.5570 C   0  0  0  0  0  3  0  0  0  0  0  0
  -41.0730   33.2110   16.8410 C   0  0  0  0  0  0  0  0  0  0  0  0
  -41.8310   33.7250   17.9290 C   0  0  0  0  0  0  0  0  0  0  0  0
  -42.6280   32.8000   18.7740 C   0  0  0  0  0  3  0  0  0  0  0  0
  -40.3150   34.0610   16.0330 O   0  0  0  0  0  0  0  0  0  0  0  0
  -39.8200   33.7100   15.3180 H   0  0  0  0  0  0  0  0  0  0  0  0
  -41.8100   35.1000   18.1830 O   0  0  0  0  0  0  0  0  0  0  0  0
  -41.3010   35.6690   17.6390 H   0  0  0  0  0  0  0  0  0  0  0  0
  -49.2530   28.2660   19.3280 O   0  0  0  0  0  0  0  0  0  0  0  0
  -49.8340   27.6740   19.7640 H   0  0  0  0  0  0  0  0  0  0  0  0
  -45.6530   26.8950   22.4240 O   0  0  0  0  0  0  0  0  0  0  0  0
  -46.2350   26.3040   22.8600 H   0  0  0  0  0  0  0  0  0  0  0  0
  -41.6480   29.9430   20.6870 O   0  0  0  0  0  0  0  0  0  0  0  0
  -41.2770   29.4690   21.4060 H   0  0  0  0  0  0  0  0  0  0  0  0
  1  2  1  0  0  0  0
  2  3  2  0  0  0  0
  3 24  1  0  0  0  0
  4  7  1  0  0  0  0
  4  3  1  0  0  0  0
  5  4  2  0  0  0  0
  6  5  1  0  0  0  0
  6  1  2  0  0  0  0
  7 11  2  0  0  0  0
  8 26  1  0  0  0  0
  8  7  1  0  0  0  0
  9  8  2  0  0  0  0
 10  9  1  0  0  0  0
 10  5  1  0  0  0  0
 12 17  1  0  0  0  0
 12  9  1  0  0  0  0
 13 12  2  0  0  0  0
 14 15  2  0  0  0  0
 14 13  1  0  0  0  0
 15 16  1  0  0  0  0
 16 20  1  0  0  0  0
 16 17  2  0  0  0  0
 18 15  1  0  0  0  0
 19 18  1  0  0  0  0
 21 20  1  0  0  0  0
 22  1  1  0  0  0  0
 22 23  1  0  0  0  0
 24 25  1  0  0  0  0
 26 27  1  0  0  0  0
M  END
>  <minimizedAffinity>
-7.12485075

$$$$

 OpenBabel10112400443D

 27 29  0  0  0  0  0  0  0  0999 V2000
  -43.6860   29.0450   16.9500 C   0  0  0  0  0  0  0  0  0  0  0  0
  -44.9420   29.5270   16.3290 C   0  0  0  0  0  3  0  0  0  0  0  0
  -46.1820   29.4000   17.0200 C   0  0  0  0  0  0  0  0  0  0  0  0
  -46.1970   28.7800   18.3680 C   0  0  0  0  0  0  0  0  0  0  0  0
  -45.0200   28.3230   18.9600 C   0  0  0  0  0  0  0  0  0  0  0  0
  -43.7300   28.4530   18.2430 C   0  0  0  0  0  3  0  0  0  0  0  0
  -47.4610   28.6080   19.1690 C   0  0  0  0  0  0  0  0  0  0  0  0
  -47.3550   27.9870   20.5030 C   0  0  0  0  0  0  0  0  0  0  0  0
  -46.1600   27.5760   20.9540 C   0  0  0  0  0  0  0  0  0  0  0  0
  -45.0380   27.7370   20.2300 O   0  0  0  0  0  0  0  0  0  0  0  0
  -48.5510   28.9640   18.7520 O   0  0  0  0  0  0  0  0  0  0  0  0
  -45.9920   26.9180   22.3090 C   0  0  0  0  0  0  0  0  0  0  0  0
  -45.8110   27.7980   23.4910 C   0  0  0  0  0  3  0  0  0  0  0  0
  -45.6540   27.2480   24.7760 C   0  0  0  0  0  3  0  0  0  0  0  0
  -45.6670   25.7800   24.9680 C   0  0  0  0  0  0  0  0  0  0  0  0
  -45.8320   24.9210   23.8460 C   0  0  0  0  0  0  0  0  0  0  0  0
  -45.9870   25.5040   22.4890 C   0  0  0  0  0  3  0  0  0  0  0  0
  -45.5190   25.2550   26.2540 O   0  0  0  0  0  0  0  0  0  0  0  0
  -45.4110   25.8310   26.9860 H   0  0  0  0  0  0  0  0  0  0  0  0
  -45.8440   23.5370   24.0450 O   0  0  0  0  0  0  0  0  0  0  0  0
  -45.7450   23.1870   24.9090 H   0  0  0  0  0  0  0  0  0  0  0  0
  -42.4840   29.1810   16.2510 O   0  0  0  0  0  0  0  0  0  0  0  0
  -42.4790   29.5740   15.4010 H   0  0  0  0  0  0  0  0  0  0  0  0
  -47.3770   29.8490   16.4510 O   0  0  0  0  0  0  0  0  0  0  0  0
  -47.3710   30.2410   15.6000 H   0  0  0  0  0  0  0  0  0  0  0  0
  -48.4480   27.8480   21.2670 O   0  0  0  0  0  0  0  0  0  0  0  0
  -49.2820   28.1340   20.9500 H   0  0  0  0  0  0  0  0  0  0  0  0
  1  6  1  0  0  0  0
  2  1  2  0  0  0  0
  2  3  1  0  0  0  0
  3  4  2  0  0  0  0
  4  5  1  0  0  0  0
  4  7  1  0  0  0  0
  5 10  1  0  0  0  0
  6  5  2  0  0  0  0
  7  8  1  0  0  0  0
  8  9  2  0  0  0  0
  8 26  1  0  0  0  0
  9 12  1  0  0  0  0
 10  9  1  0  0  0  0
 11  7  2  0  0  0  0
 12 17  2  0  0  0  0
 12 13  1  0  0  0  0
 13 14  2  0  0  0  0
 14 15  1  0  0  0  0
 15 18  1  0  0  0  0
 16 20  1  0  0  0  0
 16 15  2  0  0  0  0
 17 16  1  0  0  0  0
 18 19  1  0  0  0  0
 20 21  1  0  0  0  0
 22  1  1  0  0  0  0
 23 22  1  0  0  0  0
 24  3  1  0  0  0  0
 25 24  1  0  0  0  0
 27 26  1  0  0  0  0
M  END
>  <minimizedAffinity>
-7.06483698

$$$$
