
 OpenBabel10112400443D

 27 29  0  0  0  0  0  0  0  0999 V2000
  -25.9210   35.0060   10.7610 C   0  0  0  0  0  0  0  0  0  0  0  0
  -25.2400   35.4360    9.5170 C   0  0  0  0  0  3  0  0  0  0  0  0
  -25.7470   35.0390    8.2450 C   0  0  0  0  0  0  0  0  0  0  0  0
  -26.9630   34.1910    8.1860 C   0  0  0  0  0  0  0  0  0  0  0  0
  -27.6100   33.7800    9.3520 C   0  0  0  0  0  0  0  0  0  0  0  0
  -27.0840   34.1920   10.6750 C   0  0  0  0  0  3  0  0  0  0  0  0
  -27.5680   33.7260    6.8860 C   0  0  0  0  0  0  0  0  0  0  0  0
  -28.7840   32.8950    6.9480 C   0  0  0  0  0  0  0  0  0  0  0  0
  -29.3020   32.5570    8.1390 C   0  0  0  0  0  0  0  0  0  0  0  0
  -28.7540   32.9800    9.2920 O   0  0  0  0  0  0  0  0  0  0  0  0
  -27.0860   34.0170    5.8030 O   0  0  0  0  0  0  0  0  0  0  0  0
  -30.5400   31.6930    8.2640 C   0  0  0  0  0  0  0  0  0  0  0  0
  -30.6660   30.5230    7.3610 C   0  0  0  0  0  3  0  0  0  0  0  0
  -31.7900   29.6800    7.4310 C   0  0  0  0  0  3  0  0  0  0  0  0
  -32.8670   29.9490    8.4110 C   0  0  0  0  0  0  0  0  0  0  0  0
  -32.7670   31.0710    9.2800 C   0  0  0  0  0  0  0  0  0  0  0  0
  -31.5840   31.9650    9.1960 C   0  0  0  0  0  3  0  0  0  0  0  0
  -33.9700   29.0950    8.4700 O   0  0  0  0  0  0  0  0  0  0  0  0
  -34.0240   28.3590    7.8920 H   0  0  0  0  0  0  0  0  0  0  0  0
  -33.7920   31.3110   10.2010 O   0  0  0  0  0  0  0  0  0  0  0  0
  -34.5310   30.7360   10.2400 H   0  0  0  0  0  0  0  0  0  0  0  0
  -25.4030   35.4090   11.9950 O   0  0  0  0  0  0  0  0  0  0  0  0
  -24.6350   35.9450   12.0280 H   0  0  0  0  0  0  0  0  0  0  0  0
  -25.1200   35.4340    7.0610 O   0  0  0  0  0  0  0  0  0  0  0  0
  -24.3520   35.9690    7.0940 H   0  0  0  0  0  0  0  0  0  0  0  0
  -29.3780   32.4900    5.8160 O   0  0  0  0  0  0  0  0  0  0  0  0
  -29.0140   32.7260    4.9850 H   0  0  0  0  0  0  0  0  0  0  0  0
  1 22  1  0  0  0  0
  2  1  2  0  0  0  0
  3  2  1  0  0  0  0
  4  3  2  0  0  0  0
  4  5  1  0  0  0  0
  5  6  2  0  0  0  0
  6  1  1  0  0  0  0
  7  8  1  0  0  0  0
  7  4  1  0  0  0  0
  8  9  2  0  0  0  0
  9 12  1  0  0  0  0
  9 10  1  0  0  0  0
 10  5  1  0  0  0  0
 11  7  2  0  0  0  0
 12 17  1  0  0  0  0
 13 14  1  0  0  0  0
 13 12  2  0  0  0  0
 14 15  2  0  0  0  0
 15 18  1  0  0  0  0
 15 16  1  0  0  0  0
 16 20  1  0  0  0  0
 17 16  2  0  0  0  0
 19 18  1  0  0  0  0
 20 21  1  0  0  0  0
 22 23  1  0  0  0  0
 24 25  1  0  0  0  0
 24  3  1  0  0  0  0
 26  8  1  0  0  0  0
 27 26  1  0  0  0  0
M  END
>  <minimizedAffinity>
-9.44451427

$$$$

 OpenBabel10112400443D

 27 29  0  0  0  0  0  0  0  0999 V2000
  -30.9980   32.4840    4.7430 C   0  0  0  0  0  0  0  0  0  0  0  0
  -31.6920   31.3020    5.3040 C   0  0  0  0  0  3  0  0  0  0  0  0
  -31.3940   30.8500    6.6230 C   0  0  0  0  0  0  0  0  0  0  0  0
  -30.3820   31.5820    7.4240 C   0  0  0  0  0  0  0  0  0  0  0  0
  -29.7230   32.6960    6.9040 C   0  0  0  0  0  0  0  0  0  0  0  0
  -30.0310   33.1660    5.5330 C   0  0  0  0  0  3  0  0  0  0  0  0
  -30.0060   31.1760    8.8260 C   0  0  0  0  0  0  0  0  0  0  0  0
  -28.9940   31.9830    9.5320 C   0  0  0  0  0  0  0  0  0  0  0  0
  -28.4230   33.0280    8.9120 C   0  0  0  0  0  0  0  0  0  0  0  0
  -28.7680   33.3810    7.6610 O   0  0  0  0  0  0  0  0  0  0  0  0
  -30.5110   30.2150    9.3830 O   0  0  0  0  0  0  0  0  0  0  0  0
  -27.3670   33.8840    9.5810 C   0  0  0  0  0  0  0  0  0  0  0  0
  -26.3620   34.5510    8.7160 C   0  0  0  0  0  3  0  0  0  0  0  0
  -25.3590   35.3620    9.2770 C   0  0  0  0  0  3  0  0  0  0  0  0
  -25.2910   35.5630   10.7420 C   0  0  0  0  0  0  0  0  0  0  0  0
  -26.2420   34.9260   11.5870 C   0  0  0  0  0  0  0  0  0  0  0  0
  -27.2930   34.0620   10.9940 C   0  0  0  0  0  3  0  0  0  0  0  0
  -24.2920   36.3800   11.2770 O   0  0  0  0  0  0  0  0  0  0  0  0
  -23.6720   36.7940   10.7090 H   0  0  0  0  0  0  0  0  0  0  0  0
  -26.1650   35.1270   12.9690 O   0  0  0  0  0  0  0  0  0  0  0  0
  -25.4950   35.6760   13.3260 H   0  0  0  0  0  0  0  0  0  0  0  0
  -31.3090   32.9050    3.4480 O   0  0  0  0  0  0  0  0  0  0  0  0
  -31.9490   32.4410    2.9450 H   0  0  0  0  0  0  0  0  0  0  0  0
  -32.0370   29.7370    7.1700 O   0  0  0  0  0  0  0  0  0  0  0  0
  -32.6770   29.2730    6.6670 H   0  0  0  0  0  0  0  0  0  0  0  0
  -28.6560   31.6820   10.7940 O   0  0  0  0  0  0  0  0  0  0  0  0
  -29.0550   30.9520   11.2250 H   0  0  0  0  0  0  0  0  0  0  0  0
  1  2  2  0  0  0  0
  1  6  1  0  0  0  0
  2  3  1  0  0  0  0
  3 24  1  0  0  0  0
  3  4  2  0  0  0  0
  4  7  1  0  0  0  0
  5  4  1  0  0  0  0
  5 10  1  0  0  0  0
  6  5  2  0  0  0  0
  7 11  2  0  0  0  0
  7  8  1  0  0  0  0
  8 26  1  0  0  0  0
  9  8  2  0  0  0  0
  9 12  1  0  0  0  0
 10  9  1  0  0  0  0
 12 17  1  0  0  0  0
 13 14  1  0  0  0  0
 13 12  2  0  0  0  0
 14 15  2  0  0  0  0
 15 18  1  0  0  0  0
 15 16  1  0  0  0  0
 16 20  1  0  0  0  0
 17 16  2  0  0  0  0
 19 18  1  0  0  0  0
 20 21  1  0  0  0  0
 22  1  1  0  0  0  0
 23 22  1  0  0  0  0
 25 24  1  0  0  0  0
 26 27  1  0  0  0  0
M  END
>  <minimizedAffinity>
-9.29288292

$$$$

 OpenBabel10112400443D

 27 29  0  0  0  0  0  0  0  0999 V2000
  -33.5470   30.3610    9.8790 C   0  0  0  0  0  0  0  0  0  0  0  0
  -33.3920   30.0900   11.3270 C   0  0  0  0  0  3  0  0  0  0  0  0
  -32.2330   30.5410   12.0250 C   0  0  0  0  0  0  0  0  0  0  0  0
  -31.1870   31.2860   11.2800 C   0  0  0  0  0  0  0  0  0  0  0  0
  -31.3250   31.5440    9.9150 C   0  0  0  0  0  0  0  0  0  0  0  0
  -32.5280   31.0750    9.1900 C   0  0  0  0  0  3  0  0  0  0  0  0
  -29.9330   31.8010   11.9360 C   0  0  0  0  0  0  0  0  0  0  0  0
  -28.9670   32.5370   11.0990 C   0  0  0  0  0  0  0  0  0  0  0  0
  -29.2120   32.7070    9.7910 C   0  0  0  0  0  0  0  0  0  0  0  0
  -30.3370   32.2440    9.2170 O   0  0  0  0  0  0  0  0  0  0  0  0
  -29.7000   31.6290   13.1220 O   0  0  0  0  0  0  0  0  0  0  0  0
  -28.2500   33.4410    8.8790 C   0  0  0  0  0  0  0  0  0  0  0  0
  -28.1940   33.0320    7.4530 C   0  0  0  0  0  3  0  0  0  0  0  0
  -27.3240   33.6780    6.5560 C   0  0  0  0  0  3  0  0  0  0  0  0
  -26.4500   34.7780    7.0220 C   0  0  0  0  0  0  0  0  0  0  0  0
  -26.4850   35.1790    8.3860 C   0  0  0  0  0  0  0  0  0  0  0  0
  -27.3960   34.4880    9.3340 C   0  0  0  0  0  3  0  0  0  0  0  0
  -25.6000   35.4110    6.1120 O   0  0  0  0  0  0  0  0  0  0  0  0
  -25.5870   35.1380    5.2150 H   0  0  0  0  0  0  0  0  0  0  0  0
  -25.6540   36.2210    8.8100 O   0  0  0  0  0  0  0  0  0  0  0  0
  -25.0850   36.6450    8.1980 H   0  0  0  0  0  0  0  0  0  0  0  0
  -34.6920   29.9060    9.2200 O   0  0  0  0  0  0  0  0  0  0  0  0
  -35.3500   29.4370    9.6950 H   0  0  0  0  0  0  0  0  0  0  0  0
  -32.0680   30.2960   13.3900 O   0  0  0  0  0  0  0  0  0  0  0  0
  -32.7260   29.8270   13.8640 H   0  0  0  0  0  0  0  0  0  0  0  0
  -27.8550   33.0460   11.6480 O   0  0  0  0  0  0  0  0  0  0  0  0
  -27.6840   32.9250   12.5610 H   0  0  0  0  0  0  0  0  0  0  0  0
  1  2  1  0  0  0  0
  2  3  2  0  0  0  0
  3 24  1  0  0  0  0
  4  7  1  0  0  0  0
  4  3  1  0  0  0  0
  5  4  2  0  0  0  0
  6  1  2  0  0  0  0
  6  5  1  0  0  0  0
  7 11  2  0  0  0  0
  8 26  1  0  0  0  0
  8  7  1  0  0  0  0
  9  8  2  0  0  0  0
 10  9  1  0  0  0  0
 10  5  1  0  0  0  0
 12 17  1  0  0  0  0
 12  9  1  0  0  0  0
 13 12  2  0  0  0  0
 14 15  2  0  0  0  0
 14 13  1  0  0  0  0
 15 16  1  0  0  0  0
 16 20  1  0  0  0  0
 16 17  2  0  0  0  0
 18 15  1  0  0  0  0
 19 18  1  0  0  0  0
 21 20  1  0  0  0  0
 22 23  1  0  0  0  0
 22  1  1  0  0  0  0
 24 25  1  0  0  0  0
 26 27  1  0  0  0  0
M  END
>  <minimizedAffinity>
-9.18955803

$$$$

 OpenBabel10112400443D

 27 29  0  0  0  0  0  0  0  0999 V2000
  -29.3780   32.1290    7.5190 C   0  0  0  0  0  0  0  0  0  0  0  0
  -28.6790   32.6720    6.3310 C   0  0  0  0  0  3  0  0  0  0  0  0
  -27.5980   33.5870    6.4880 C   0  0  0  0  0  0  0  0  0  0  0  0
  -27.1840   33.9880    7.8550 C   0  0  0  0  0  0  0  0  0  0  0  0
  -27.8370   33.4830    8.9800 C   0  0  0  0  0  0  0  0  0  0  0  0
  -28.9610   32.5320    8.8180 C   0  0  0  0  0  3  0  0  0  0  0  0
  -26.0520   34.9490    8.1130 C   0  0  0  0  0  0  0  0  0  0  0  0
  -25.7220   35.2670    9.5150 C   0  0  0  0  0  0  0  0  0  0  0  0
  -26.4390   34.7220   10.5100 C   0  0  0  0  0  0  0  0  0  0  0  0
  -27.4460   33.8640   10.2660 O   0  0  0  0  0  0  0  0  0  0  0  0
  -25.4120   35.4600    7.2080 O   0  0  0  0  0  0  0  0  0  0  0  0
  -26.1550   35.0240   11.9670 C   0  0  0  0  0  0  0  0  0  0  0  0
  -27.2940   34.9870   12.9190 C   0  0  0  0  0  3  0  0  0  0  0  0
  -27.0940   35.2540   14.2860 C   0  0  0  0  0  3  0  0  0  0  0  0
  -25.7420   35.5750   14.7960 C   0  0  0  0  0  0  0  0  0  0  0  0
  -24.6410   35.6220   13.8970 C   0  0  0  0  0  0  0  0  0  0  0  0
  -24.8560   35.3510   12.4530 C   0  0  0  0  0  3  0  0  0  0  0  0
  -25.5650   35.8280   16.1580 O   0  0  0  0  0  0  0  0  0  0  0  0
  -26.2990   35.7940   16.7400 H   0  0  0  0  0  0  0  0  0  0  0  0
  -23.3700   35.9260   14.3950 O   0  0  0  0  0  0  0  0  0  0  0  0
  -23.2530   36.0940   15.3100 H   0  0  0  0  0  0  0  0  0  0  0  0
  -30.4340   31.2330    7.3380 O   0  0  0  0  0  0  0  0  0  0  0  0
  -30.6920   30.9820    6.4720 H   0  0  0  0  0  0  0  0  0  0  0  0
  -26.9250   34.1100    5.3800 O   0  0  0  0  0  0  0  0  0  0  0  0
  -27.1840   33.8600    4.5150 H   0  0  0  0  0  0  0  0  0  0  0  0
  -24.6980   36.0870    9.7940 O   0  0  0  0  0  0  0  0  0  0  0  0
  -24.1990   36.4680    9.0980 H   0  0  0  0  0  0  0  0  0  0  0  0
  1  6  1  0  0  0  0
  2  3  1  0  0  0  0
  2  1  2  0  0  0  0
  3  4  2  0  0  0  0
  4  7  1  0  0  0  0
  4  5  1  0  0  0  0
  5 10  1  0  0  0  0
  6  5  2  0  0  0  0
  7  8  1  0  0  0  0
  8 26  1  0  0  0  0
  8  9  2  0  0  0  0
  9 12  1  0  0  0  0
 10  9  1  0  0  0  0
 11  7  2  0  0  0  0
 12 17  2  0  0  0  0
 12 13  1  0  0  0  0
 13 14  2  0  0  0  0
 14 15  1  0  0  0  0
 15 18  1  0  0  0  0
 16 20  1  0  0  0  0
 16 15  2  0  0  0  0
 17 16  1  0  0  0  0
 18 19  1  0  0  0  0
 20 21  1  0  0  0  0
 22  1  1  0  0  0  0
 23 22  1  0  0  0  0
 24  3  1  0  0  0  0
 25 24  1  0  0  0  0
 27 26  1  0  0  0  0
M  END
>  <minimizedAffinity>
-9.0961895

$$$$

 OpenBabel10112400443D

 27 29  0  0  0  0  0  0  0  0999 V2000
  -26.9370   34.1620    6.2410 C   0  0  0  0  0  0  0  0  0  0  0  0
  -26.1990   34.5290    7.4720 C   0  0  0  0  0  3  0  0  0  0  0  0
  -26.6150   34.0250    8.7390 C   0  0  0  0  0  0  0  0  0  0  0  0
  -27.7960   33.1290    8.8060 C   0  0  0  0  0  0  0  0  0  0  0  0
  -28.4980   32.7790    7.6520 C   0  0  0  0  0  0  0  0  0  0  0  0
  -28.0670   33.3020    6.3350 C   0  0  0  0  0  3  0  0  0  0  0  0
  -28.3040   32.5500   10.1010 C   0  0  0  0  0  0  0  0  0  0  0  0
  -29.4810   31.6630   10.0470 C   0  0  0  0  0  0  0  0  0  0  0  0
  -30.0760   31.4150    8.8690 C   0  0  0  0  0  0  0  0  0  0  0  0
  -29.6110   31.9360    7.7200 O   0  0  0  0  0  0  0  0  0  0  0  0
  -27.7760   32.7910   11.1740 O   0  0  0  0  0  0  0  0  0  0  0  0
  -31.2960   30.5240    8.7540 C   0  0  0  0  0  0  0  0  0  0  0  0
  -31.1780   29.2840    7.9470 C   0  0  0  0  0  3  0  0  0  0  0  0
  -32.2740   28.4140    7.8060 C   0  0  0  0  0  3  0  0  0  0  0  0
  -33.5650   28.7240    8.4620 C   0  0  0  0  0  0  0  0  0  0  0  0
  -33.6990   29.9120    9.2330 C   0  0  0  0  0  0  0  0  0  0  0  0
  -32.5430   30.8340    9.3720 C   0  0  0  0  0  3  0  0  0  0  0  0
  -34.6380   27.8410    8.3150 O   0  0  0  0  0  0  0  0  0  0  0  0
  -34.5370   27.0620    7.8040 H   0  0  0  0  0  0  0  0  0  0  0  0
  -34.9240   30.1890    9.8470 O   0  0  0  0  0  0  0  0  0  0  0  0
  -35.6430   29.5950    9.7490 H   0  0  0  0  0  0  0  0  0  0  0  0
  -26.5080   34.6700    5.0120 O   0  0  0  0  0  0  0  0  0  0  0  0
  -25.7610   35.2340    4.9740 H   0  0  0  0  0  0  0  0  0  0  0  0
  -25.9320   34.3590    9.9110 O   0  0  0  0  0  0  0  0  0  0  0  0
  -25.1860   34.9250    9.8720 H   0  0  0  0  0  0  0  0  0  0  0  0
  -29.9460   31.0950   11.1690 O   0  0  0  0  0  0  0  0  0  0  0  0
  -29.5300   31.2700   11.9900 H   0  0  0  0  0  0  0  0  0  0  0  0
  1  6  2  0  0  0  0
  1  2  1  0  0  0  0
  2  3  2  0  0  0  0
  3  4  1  0  0  0  0
  3 24  1  0  0  0  0
  4  7  1  0  0  0  0
  5 10  1  0  0  0  0
  5  4  2  0  0  0  0
  6  5  1  0  0  0  0
  7 11  2  0  0  0  0
  8  7  1  0  0  0  0
  8 26  1  0  0  0  0
  9  8  2  0  0  0  0
 10  9  1  0  0  0  0
 12  9  1  0  0  0  0
 12 17  1  0  0  0  0
 13 12  2  0  0  0  0
 14 13  1  0  0  0  0
 14 15  2  0  0  0  0
 15 16  1  0  0  0  0
 16 17  2  0  0  0  0
 16 20  1  0  0  0  0
 18 15  1  0  0  0  0
 19 18  1  0  0  0  0
 21 20  1  0  0  0  0
 22  1  1  0  0  0  0
 23 22  1  0  0  0  0
 25 24  1  0  0  0  0
 26 27  1  0  0  0  0
M  END
>  <minimizedAffinity>
-9.05673409

$$$$

 OpenBabel10112400443D

 27 29  0  0  0  0  0  0  0  0999 V2000
  -32.7650   29.7090   10.7150 C   0  0  0  0  0  0  0  0  0  0  0  0
  -33.2390   29.2470    9.3900 C   0  0  0  0  0  3  0  0  0  0  0  0
  -32.5820   29.6770    8.2000 C   0  0  0  0  0  0  0  0  0  0  0  0
  -31.4190   30.5930    8.3090 C   0  0  0  0  0  0  0  0  0  0  0  0
  -30.9670   31.0330    9.5530 C   0  0  0  0  0  0  0  0  0  0  0  0
  -31.6490   30.5870   10.7900 C   0  0  0  0  0  3  0  0  0  0  0  0
  -30.6650   31.0960    7.1050 C   0  0  0  0  0  0  0  0  0  0  0  0
  -29.5180   31.9940    7.3350 C   0  0  0  0  0  0  0  0  0  0  0  0
  -29.1920   32.3550    8.5850 C   0  0  0  0  0  0  0  0  0  0  0  0
  -29.8720   31.8970    9.6520 O   0  0  0  0  0  0  0  0  0  0  0  0
  -30.9720   30.7830    5.9660 O   0  0  0  0  0  0  0  0  0  0  0  0
  -28.0340   33.2860    8.8810 C   0  0  0  0  0  0  0  0  0  0  0  0
  -27.7030   33.5550   10.3020 C   0  0  0  0  0  3  0  0  0  0  0  0
  -26.6370   34.4080   10.6410 C   0  0  0  0  0  3  0  0  0  0  0  0
  -25.8270   35.0510    9.5820 C   0  0  0  0  0  0  0  0  0  0  0  0
  -26.1350   34.8110    8.2140 C   0  0  0  0  0  0  0  0  0  0  0  0
  -27.2680   33.9190    7.8590 C   0  0  0  0  0  3  0  0  0  0  0  0
  -24.7670   35.8870    9.9400 O   0  0  0  0  0  0  0  0  0  0  0  0
  -24.5750   36.0360   10.8450 H   0  0  0  0  0  0  0  0  0  0  0  0
  -25.3590   35.4250    7.2250 O   0  0  0  0  0  0  0  0  0  0  0  0
  -24.6480   35.9840    7.4670 H   0  0  0  0  0  0  0  0  0  0  0  0
  -33.4280   29.2720   11.8650 O   0  0  0  0  0  0  0  0  0  0  0  0
  -34.1610   28.6930   11.7920 H   0  0  0  0  0  0  0  0  0  0  0  0
  -33.0130   29.2530    6.9400 O   0  0  0  0  0  0  0  0  0  0  0  0
  -33.7470   28.6750    6.8680 H   0  0  0  0  0  0  0  0  0  0  0  0
  -28.7940   32.4370    6.2960 O   0  0  0  0  0  0  0  0  0  0  0  0
  -29.0240   32.1850    5.4230 H   0  0  0  0  0  0  0  0  0  0  0  0
  1  6  1  0  0  0  0
  1 22  1  0  0  0  0
  2  1  2  0  0  0  0
  3  4  2  0  0  0  0
  3  2  1  0  0  0  0
  4  5  1  0  0  0  0
  5 10  1  0  0  0  0
  5  6  2  0  0  0  0
  7  8  1  0  0  0  0
  7  4  1  0  0  0  0
  8  9  2  0  0  0  0
  9 12  1  0  0  0  0
  9 10  1  0  0  0  0
 11  7  2  0  0  0  0
 12 13  1  0  0  0  0
 13 14  2  0  0  0  0
 15 18  1  0  0  0  0
 15 14  1  0  0  0  0
 16 15  2  0  0  0  0
 17 16  1  0  0  0  0
 17 12  2  0  0  0  0
 18 19  1  0  0  0  0
 20 21  1  0  0  0  0
 20 16  1  0  0  0  0
 23 22  1  0  0  0  0
 24  3  1  0  0  0  0
 25 24  1  0  0  0  0
 26  8  1  0  0  0  0
 27 26  1  0  0  0  0
M  END
>  <minimizedAffinity>
-9.00613499

$$$$

 OpenBabel10112400443D

 27 29  0  0  0  0  0  0  0  0999 V2000
  -26.8830   35.0800   13.4410 C   0  0  0  0  0  0  0  0  0  0  0  0
  -25.6600   35.7280   12.9140 C   0  0  0  0  0  3  0  0  0  0  0  0
  -25.3780   35.7050   11.5170 C   0  0  0  0  0  0  0  0  0  0  0  0
  -26.3250   35.0230   10.6000 C   0  0  0  0  0  0  0  0  0  0  0  0
  -27.4800   34.4100   11.0880 C   0  0  0  0  0  0  0  0  0  0  0  0
  -27.7740   34.4330   12.5400 C   0  0  0  0  0  3  0  0  0  0  0  0
  -26.1070   34.9520    9.1110 C   0  0  0  0  0  0  0  0  0  0  0  0
  -27.1210   34.2570    8.2970 C   0  0  0  0  0  0  0  0  0  0  0  0
  -28.1850   33.6940    8.8920 C   0  0  0  0  0  0  0  0  0  0  0  0
  -28.3690   33.7670   10.2220 O   0  0  0  0  0  0  0  0  0  0  0  0
  -25.1310   35.4470    8.5710 O   0  0  0  0  0  0  0  0  0  0  0  0
  -29.2500   32.9550    8.1090 C   0  0  0  0  0  0  0  0  0  0  0  0
  -28.8210   32.1560    6.9350 C   0  0  0  0  0  3  0  0  0  0  0  0
  -29.7630   31.4440    6.1690 C   0  0  0  0  0  3  0  0  0  0  0  0
  -31.1990   31.4810    6.5260 C   0  0  0  0  0  0  0  0  0  0  0  0
  -31.6300   32.2480    7.6440 C   0  0  0  0  0  0  0  0  0  0  0  0
  -30.6350   33.0080    8.4430 C   0  0  0  0  0  3  0  0  0  0  0  0
  -32.1160   30.7600    5.7580 O   0  0  0  0  0  0  0  0  0  0  0  0
  -31.8190   30.2580    5.0240 H   0  0  0  0  0  0  0  0  0  0  0  0
  -32.9900   32.2720    7.9690 O   0  0  0  0  0  0  0  0  0  0  0  0
  -33.6030   31.7860    7.4530 H   0  0  0  0  0  0  0  0  0  0  0  0
  -27.1360   35.1180   14.8140 O   0  0  0  0  0  0  0  0  0  0  0  0
  -26.5350   35.5500   15.3890 H   0  0  0  0  0  0  0  0  0  0  0  0
  -24.2300   36.3100   10.9990 O   0  0  0  0  0  0  0  0  0  0  0  0
  -23.6290   36.7410   11.5750 H   0  0  0  0  0  0  0  0  0  0  0  0
  -26.9880   34.2010    6.9640 O   0  0  0  0  0  0  0  0  0  0  0  0
  -26.2450   34.5930    6.5490 H   0  0  0  0  0  0  0  0  0  0  0  0
  1 22  1  0  0  0  0
  2  1  1  0  0  0  0
  3  2  2  0  0  0  0
  4  5  2  0  0  0  0
  4  3  1  0  0  0  0
  5  6  1  0  0  0  0
  6  1  2  0  0  0  0
  7  4  1  0  0  0  0
  8  9  2  0  0  0  0
  8  7  1  0  0  0  0
  9 10  1  0  0  0  0
 10  5  1  0  0  0  0
 11  7  2  0  0  0  0
 12 17  1  0  0  0  0
 12  9  1  0  0  0  0
 13 12  2  0  0  0  0
 14 15  2  0  0  0  0
 14 13  1  0  0  0  0
 15 16  1  0  0  0  0
 16 20  1  0  0  0  0
 16 17  2  0  0  0  0
 18 15  1  0  0  0  0
 19 18  1  0  0  0  0
 21 20  1  0  0  0  0
 22 23  1  0  0  0  0
 24  3  1  0  0  0  0
 24 25  1  0  0  0  0
 26  8  1  0  0  0  0
 27 26  1  0  0  0  0
M  END
>  <minimizedAffinity>
-8.89700603

$$$$

 OpenBabel10112400443D

 27 29  0  0  0  0  0  0  0  0999 V2000
  -36.0510   26.5680    5.9510 C   0  0  0  0  0  0  0  0  0  0  0  0
  -36.4050   25.4490    5.0460 C   0  0  0  0  0  3  0  0  0  0  0  0
  -37.5340   24.6250    5.3270 C   0  0  0  0  0  0  0  0  0  0  0  0
  -38.3480   24.9050    6.5360 C   0  0  0  0  0  0  0  0  0  0  0  0
  -38.0220   25.9560    7.3940 C   0  0  0  0  0  0  0  0  0  0  0  0
  -36.8480   26.8120    7.1030 C   0  0  0  0  0  3  0  0  0  0  0  0
  -39.5580   24.0870    6.9080 C   0  0  0  0  0  0  0  0  0  0  0  0
  -40.2970   24.4630    8.1270 C   0  0  0  0  0  0  0  0  0  0  0  0
  -39.8700   25.4920    8.8760 C   0  0  0  0  0  0  0  0  0  0  0  0
  -38.7900   26.2150    8.5320 O   0  0  0  0  0  0  0  0  0  0  0  0
  -39.9360   23.1400    6.2380 O   0  0  0  0  0  0  0  0  0  0  0  0
  -40.5810   25.9140   10.1470 C   0  0  0  0  0  0  0  0  0  0  0  0
  -39.7850   25.9820   11.3980 C   0  0  0  0  0  3  0  0  0  0  0  0
  -40.3860   26.3720   12.6090 C   0  0  0  0  0  3  0  0  0  0  0  0
  -41.8250   26.7210   12.6520 C   0  0  0  0  0  0  0  0  0  0  0  0
  -42.6040   26.6540   11.4640 C   0  0  0  0  0  0  0  0  0  0  0  0
  -41.9700   26.2320   10.1900 C   0  0  0  0  0  3  0  0  0  0  0  0
  -42.3990   27.1130   13.8630 O   0  0  0  0  0  0  0  0  0  0  0  0
  -41.8740   27.1530   14.6390 H   0  0  0  0  0  0  0  0  0  0  0  0
  -43.9610   26.9880   11.5220 O   0  0  0  0  0  0  0  0  0  0  0  0
  -44.3440   27.2520   12.3350 H   0  0  0  0  0  0  0  0  0  0  0  0
  -34.9390   27.3590    5.6520 O   0  0  0  0  0  0  0  0  0  0  0  0
  -34.4280   27.1790    4.8880 H   0  0  0  0  0  0  0  0  0  0  0  0
  -37.8840   23.5650    4.4870 O   0  0  0  0  0  0  0  0  0  0  0  0
  -37.3730   23.3860    3.7230 H   0  0  0  0  0  0  0  0  0  0  0  0
  -41.4020   23.7880    8.4780 O   0  0  0  0  0  0  0  0  0  0  0  0
  -41.6980   23.0690    7.9540 H   0  0  0  0  0  0  0  0  0  0  0  0
  1  6  1  0  0  0  0
  2  3  1  0  0  0  0
  2  1  2  0  0  0  0
  3  4  2  0  0  0  0
  4  7  1  0  0  0  0
  4  5  1  0  0  0  0
  5 10  1  0  0  0  0
  6  5  2  0  0  0  0
  7  8  1  0  0  0  0
  8 26  1  0  0  0  0
  8  9  2  0  0  0  0
  9 12  1  0  0  0  0
 10  9  1  0  0  0  0
 11  7  2  0  0  0  0
 12 17  2  0  0  0  0
 12 13  1  0  0  0  0
 13 14  2  0  0  0  0
 14 15  1  0  0  0  0
 15 18  1  0  0  0  0
 16 20  1  0  0  0  0
 16 15  2  0  0  0  0
 17 16  1  0  0  0  0
 18 19  1  0  0  0  0
 20 21  1  0  0  0  0
 22  1  1  0  0  0  0
 23 22  1  0  0  0  0
 24  3  1  0  0  0  0
 25 24  1  0  0  0  0
 27 26  1  0  0  0  0
M  END
>  <minimizedAffinity>
-8.82687187

$$$$

 OpenBabel10112400443D

 27 29  0  0  0  0  0  0  0  0999 V2000
  -41.0740   26.0870   14.5030 C   0  0  0  0  0  0  0  0  0  0  0  0
  -40.1980   27.2590   14.2770 C   0  0  0  0  0  3  0  0  0  0  0  0
  -40.5170   28.5200   14.8590 C   0  0  0  0  0  0  0  0  0  0  0  0
  -41.7380   28.6410   15.6940 C   0  0  0  0  0  0  0  0  0  0  0  0
  -42.5700   27.5420   15.9120 C   0  0  0  0  0  0  0  0  0  0  0  0
  -42.2390   26.2310   15.3070 C   0  0  0  0  0  3  0  0  0  0  0  0
  -42.1500   29.9330   16.3490 C   0  0  0  0  0  0  0  0  0  0  0  0
  -43.3780   29.9330   17.1660 C   0  0  0  0  0  0  0  0  0  0  0  0
  -44.1000   28.8080   17.2860 C   0  0  0  0  0  0  0  0  0  0  0  0
  -43.7200   27.6600   16.6980 O   0  0  0  0  0  0  0  0  0  0  0  0
  -41.5050   30.9620   16.2250 O   0  0  0  0  0  0  0  0  0  0  0  0
  -45.3770   28.7520   18.0990 C   0  0  0  0  0  0  0  0  0  0  0  0
  -46.6410   29.1620   17.4380 C   0  0  0  0  0  3  0  0  0  0  0  0
  -47.8600   29.1280   18.1380 C   0  0  0  0  0  3  0  0  0  0  0  0
  -47.9010   28.6800   19.5490 C   0  0  0  0  0  0  0  0  0  0  0  0
  -46.6980   28.2900   20.2010 C   0  0  0  0  0  0  0  0  0  0  0  0
  -45.4110   28.3370   19.4630 C   0  0  0  0  0  3  0  0  0  0  0  0
  -49.1240   28.6450   20.2230 O   0  0  0  0  0  0  0  0  0  0  0  0
  -49.9090   28.9050   19.7820 H   0  0  0  0  0  0  0  0  0  0  0  0
  -46.7540   27.8680   21.5330 O   0  0  0  0  0  0  0  0  0  0  0  0
  -47.5750   27.8440   21.9840 H   0  0  0  0  0  0  0  0  0  0  0  0
  -40.7380   24.8620   13.9200 O   0  0  0  0  0  0  0  0  0  0  0  0
  -39.9660   24.7900   13.3940 H   0  0  0  0  0  0  0  0  0  0  0  0
  -39.7030   29.6380   14.6580 O   0  0  0  0  0  0  0  0  0  0  0  0
  -38.9320   29.5660   14.1310 H   0  0  0  0  0  0  0  0  0  0  0  0
  -43.7640   31.0510   17.7980 O   0  0  0  0  0  0  0  0  0  0  0  0
  -43.2600   31.8360   17.7130 H   0  0  0  0  0  0  0  0  0  0  0  0
  1  6  1  0  0  0  0
  2  1  2  0  0  0  0
  2  3  1  0  0  0  0
  3  4  2  0  0  0  0
  4  5  1  0  0  0  0
  4  7  1  0  0  0  0
  5 10  1  0  0  0  0
  6  5  2  0  0  0  0
  7  8  1  0  0  0  0
  8  9  2  0  0  0  0
  8 26  1  0  0  0  0
  9 12  1  0  0  0  0
 10  9  1  0  0  0  0
 11  7  2  0  0  0  0
 12 17  1  0  0  0  0
 13 12  2  0  0  0  0
 13 14  1  0  0  0  0
 14 15  2  0  0  0  0
 15 16  1  0  0  0  0
 15 18  1  0  0  0  0
 16 20  1  0  0  0  0
 17 16  2  0  0  0  0
 19 18  1  0  0  0  0
 20 21  1  0  0  0  0
 22  1  1  0  0  0  0
 23 22  1  0  0  0  0
 24  3  1  0  0  0  0
 25 24  1  0  0  0  0
 27 26  1  0  0  0  0
M  END
>  <minimizedAffinity>
-8.61783314

$$$$
