
 OpenBabel10112400403D

 27 29  0  0  0  0  0  0  0  0999 V2000
    1.7750  -40.0540   46.0850 C   0  0  0  0  0  0  0  0  0  0  0  0
    0.9340  -39.9250   47.2980 C   0  0  0  0  0  3  0  0  0  0  0  0
   -0.2760  -40.6700   47.4180 C   0  0  0  0  0  0  0  0  0  0  0  0
   -0.6790  -41.5750   46.3130 C   0  0  0  0  0  0  0  0  0  0  0  0
    0.1070  -41.7020   45.1670 C   0  0  0  0  0  0  0  0  0  0  0  0
    1.3640  -40.9280   45.0400 C   0  0  0  0  0  3  0  0  0  0  0  0
   -1.9390  -42.4000   46.3560 C   0  0  0  0  0  0  0  0  0  0  0  0
   -2.2330  -43.2730   45.2050 C   0  0  0  0  0  0  0  0  0  0  0  0
   -1.3990  -43.2940   44.1530 C   0  0  0  0  0  0  0  0  0  0  0  0
   -0.2770  -42.5540   44.1270 O   0  0  0  0  0  0  0  0  0  0  0  0
   -2.7070  -42.3670   47.3040 O   0  0  0  0  0  0  0  0  0  0  0  0
   -1.6580  -44.1590   42.9360 C   0  0  0  0  0  0  0  0  0  0  0  0
   -1.1350  -45.5480   42.9470 C   0  0  0  0  0  3  0  0  0  0  0  0
   -1.3460  -46.4020   41.8490 C   0  0  0  0  0  3  0  0  0  0  0  0
   -2.0950  -45.9260   40.6630 C   0  0  0  0  0  0  0  0  0  0  0  0
   -2.5970  -44.5950   40.6330 C   0  0  0  0  0  0  0  0  0  0  0  0
   -2.3640  -43.6930   41.7890 C   0  0  0  0  0  3  0  0  0  0  0  0
   -2.3000  -46.7930   39.5880 O   0  0  0  0  0  0  0  0  0  0  0  0
   -1.9640  -47.6670   39.6210 H   0  0  0  0  0  0  0  0  0  0  0  0
   -3.3040  -44.1610   39.5070 O   0  0  0  0  0  0  0  0  0  0  0  0
   -3.4420  -44.7450   38.7870 H   0  0  0  0  0  0  0  0  0  0  0  0
    2.9550  -39.3130   45.9930 O   0  0  0  0  0  0  0  0  0  0  0  0
    3.2060  -38.7430   46.6930 H   0  0  0  0  0  0  0  0  0  0  0  0
   -1.0830  -40.5620   48.5530 O   0  0  0  0  0  0  0  0  0  0  0  0
   -0.8320  -39.9920   49.2530 H   0  0  0  0  0  0  0  0  0  0  0  0
   -3.3230  -44.0530   45.2150 O   0  0  0  0  0  0  0  0  0  0  0  0
   -3.9050  -44.0370   45.9500 H   0  0  0  0  0  0  0  0  0  0  0  0
  1  2  1  0  0  0  0
  2  3  2  0  0  0  0
  3 24  1  0  0  0  0
  4  7  1  0  0  0  0
  4  3  1  0  0  0  0
  5  4  2  0  0  0  0
  6  5  1  0  0  0  0
  6  1  2  0  0  0  0
  7 11  2  0  0  0  0
  8 26  1  0  0  0  0
  8  7  1  0  0  0  0
  9  8  2  0  0  0  0
 10  9  1  0  0  0  0
 10  5  1  0  0  0  0
 12 13  1  0  0  0  0
 12  9  1  0  0  0  0
 14 13  2  0  0  0  0
 15 14  1  0  0  0  0
 16 15  2  0  0  0  0
 16 17  1  0  0  0  0
 17 12  2  0  0  0  0
 18 19  1  0  0  0  0
 18 15  1  0  0  0  0
 20 16  1  0  0  0  0
 21 20  1  0  0  0  0
 22  1  1  0  0  0  0
 22 23  1  0  0  0  0
 24 25  1  0  0  0  0
 26 27  1  0  0  0  0
M  END
>  <minimizedAffinity>
-9.65166378

$$$$

 OpenBabel10112400403D

 27 29  0  0  0  0  0  0  0  0999 V2000
   -1.4970  -47.0480   42.2010 C   0  0  0  0  0  0  0  0  0  0  0  0
   -2.9320  -46.7470   41.9850 C   0  0  0  0  0  3  0  0  0  0  0  0
   -3.4790  -45.5020   42.4120 C   0  0  0  0  0  0  0  0  0  0  0  0
   -2.5930  -44.5140   43.0750 C   0  0  0  0  0  0  0  0  0  0  0  0
   -1.2400  -44.7900   43.2840 C   0  0  0  0  0  0  0  0  0  0  0  0
   -0.6710  -46.0830   42.8410 C   0  0  0  0  0  3  0  0  0  0  0  0
   -3.0850  -43.1740   43.5570 C   0  0  0  0  0  0  0  0  0  0  0  0
   -2.1120  -42.2680   44.1930 C   0  0  0  0  0  0  0  0  0  0  0  0
   -0.8370  -42.6590   44.3470 C   0  0  0  0  0  0  0  0  0  0  0  0
   -0.4090  -43.8570   43.9110 O   0  0  0  0  0  0  0  0  0  0  0  0
   -4.2490  -42.8260   43.4350 O   0  0  0  0  0  0  0  0  0  0  0  0
    0.2030  -41.7770   45.0060 C   0  0  0  0  0  0  0  0  0  0  0  0
    1.0340  -40.9100   44.1330 C   0  0  0  0  0  3  0  0  0  0  0  0
    2.0140  -40.0660   44.6860 C   0  0  0  0  0  3  0  0  0  0  0  0
    2.2310  -40.0290   46.1500 C   0  0  0  0  0  0  0  0  0  0  0  0
    1.4500  -40.8580   47.0010 C   0  0  0  0  0  0  0  0  0  0  0  0
    0.4230  -41.7570   46.4150 C   0  0  0  0  0  3  0  0  0  0  0  0
    3.2040  -39.1760   46.6780 O   0  0  0  0  0  0  0  0  0  0  0  0
    3.7120  -38.6350   46.1060 H   0  0  0  0  0  0  0  0  0  0  0  0
    1.6660  -40.8110   48.3820 O   0  0  0  0  0  0  0  0  0  0  0  0
    2.3180  -40.2370   48.7350 H   0  0  0  0  0  0  0  0  0  0  0  0
   -0.9870  -48.2760   41.7730 O   0  0  0  0  0  0  0  0  0  0  0  0
   -1.5500  -48.8970   41.3530 H   0  0  0  0  0  0  0  0  0  0  0  0
   -4.8290  -45.2000   42.2170 O   0  0  0  0  0  0  0  0  0  0  0  0
   -5.3920  -45.8210   41.7990 H   0  0  0  0  0  0  0  0  0  0  0  0
   -2.4970  -41.0510   44.6030 O   0  0  0  0  0  0  0  0  0  0  0  0
   -3.3870  -40.7790   44.4960 H   0  0  0  0  0  0  0  0  0  0  0  0
  1  6  1  0  0  0  0
  2  1  2  0  0  0  0
  2  3  1  0  0  0  0
  3  4  2  0  0  0  0
  4  5  1  0  0  0  0
  4  7  1  0  0  0  0
  5 10  1  0  0  0  0
  6  5  2  0  0  0  0
  7  8  1  0  0  0  0
  8  9  2  0  0  0  0
  8 26  1  0  0  0  0
  9 12  1  0  0  0  0
 10  9  1  0  0  0  0
 11  7  2  0  0  0  0
 12 17  1  0  0  0  0
 13 14  1  0  0  0  0
 13 12  2  0  0  0  0
 14 15  2  0  0  0  0
 15 18  1  0  0  0  0
 15 16  1  0  0  0  0
 16 20  1  0  0  0  0
 17 16  2  0  0  0  0
 19 18  1  0  0  0  0
 20 21  1  0  0  0  0
 22  1  1  0  0  0  0
 23 22  1  0  0  0  0
 24  3  1  0  0  0  0
 25 24  1  0  0  0  0
 27 26  1  0  0  0  0
M  END
>  <minimizedAffinity>
-9.51858139

$$$$

 OpenBabel10112400403D

 27 29  0  0  0  0  0  0  0  0999 V2000
    0.1670  -35.4420   21.8740 C   0  0  0  0  0  0  0  0  0  0  0  0
   -1.1400  -35.1810   22.5200 C   0  0  0  0  0  3  0  0  0  0  0  0
   -1.7920  -36.2050   23.2660 C   0  0  0  0  0  0  0  0  0  0  0  0
   -1.1430  -37.5340   23.3870 C   0  0  0  0  0  0  0  0  0  0  0  0
    0.0880  -37.7900   22.7810 C   0  0  0  0  0  0  0  0  0  0  0  0
    0.7660  -36.7260   22.0040 C   0  0  0  0  0  3  0  0  0  0  0  0
   -1.7590  -38.6730   24.1570 C   0  0  0  0  0  0  0  0  0  0  0  0
   -1.0190  -39.9470   24.2170 C   0  0  0  0  0  0  0  0  0  0  0  0
    0.1540  -40.0680   23.5770 C   0  0  0  0  0  0  0  0  0  0  0  0
    0.6950  -39.0430   22.8940 O   0  0  0  0  0  0  0  0  0  0  0  0
   -2.8360  -38.5700   24.7230 O   0  0  0  0  0  0  0  0  0  0  0  0
    0.9510  -41.3570   23.5920 C   0  0  0  0  0  0  0  0  0  0  0  0
    0.8040  -42.2790   22.4380 C   0  0  0  0  0  3  0  0  0  0  0  0
    1.5200  -43.4880   22.3910 C   0  0  0  0  0  3  0  0  0  0  0  0
    2.4350  -43.8600   23.4940 C   0  0  0  0  0  0  0  0  0  0  0  0
    2.5840  -42.9920   24.6110 C   0  0  0  0  0  0  0  0  0  0  0  0
    1.8180  -41.7210   24.6640 C   0  0  0  0  0  3  0  0  0  0  0  0
    3.1440  -45.0610   23.4220 O   0  0  0  0  0  0  0  0  0  0  0  0
    3.0370  -45.6240   22.6810 H   0  0  0  0  0  0  0  0  0  0  0  0
    3.4530  -43.3560   25.6440 O   0  0  0  0  0  0  0  0  0  0  0  0
    3.9290  -44.1620   25.5940 H   0  0  0  0  0  0  0  0  0  0  0  0
    0.7850  -34.4210   21.1480 O   0  0  0  0  0  0  0  0  0  0  0  0
    0.3720  -33.5820   21.0750 H   0  0  0  0  0  0  0  0  0  0  0  0
   -3.0250  -35.9790   23.8830 O   0  0  0  0  0  0  0  0  0  0  0  0
   -3.4380  -35.1410   23.8100 H   0  0  0  0  0  0  0  0  0  0  0  0
   -1.5110  -40.9760   24.9220 O   0  0  0  0  0  0  0  0  0  0  0  0
   -2.3310  -40.8900   25.3680 H   0  0  0  0  0  0  0  0  0  0  0  0
  1  6  2  0  0  0  0
  1  2  1  0  0  0  0
  2  3  2  0  0  0  0
  3  4  1  0  0  0  0
  3 24  1  0  0  0  0
  4  7  1  0  0  0  0
  5 10  1  0  0  0  0
  5  4  2  0  0  0  0
  6  5  1  0  0  0  0
  7  8  1  0  0  0  0
  7 11  2  0  0  0  0
  8 26  1  0  0  0  0
  9 12  1  0  0  0  0
  9  8  2  0  0  0  0
 10  9  1  0  0  0  0
 12 17  1  0  0  0  0
 13 12  2  0  0  0  0
 14 13  1  0  0  0  0
 14 15  2  0  0  0  0
 15 16  1  0  0  0  0
 16 17  2  0  0  0  0
 16 20  1  0  0  0  0
 18 15  1  0  0  0  0
 19 18  1  0  0  0  0
 21 20  1  0  0  0  0
 22  1  1  0  0  0  0
 23 22  1  0  0  0  0
 25 24  1  0  0  0  0
 26 27  1  0  0  0  0
M  END
>  <minimizedAffinity>
-9.23646832

$$$$

 OpenBabel10112400403D

 27 29  0  0  0  0  0  0  0  0999 V2000
   11.2040  -41.5550   16.9970 C   0  0  0  0  0  0  0  0  0  0  0  0
   11.8680  -41.2440   15.7090 C   0  0  0  0  0  3  0  0  0  0  0  0
   13.2630  -40.9520   15.6710 C   0  0  0  0  0  0  0  0  0  0  0  0
   14.0370  -40.9640   16.9370 C   0  0  0  0  0  0  0  0  0  0  0  0
   13.4190  -41.2540   18.1540 C   0  0  0  0  0  0  0  0  0  0  0  0
   11.9700  -41.5580   18.1950 C   0  0  0  0  0  3  0  0  0  0  0  0
   15.5140  -40.6680   16.9900 C   0  0  0  0  0  0  0  0  0  0  0  0
   16.1830  -40.7190   18.3030 C   0  0  0  0  0  0  0  0  0  0  0  0
   15.4690  -40.9990   19.4050 C   0  0  0  0  0  0  0  0  0  0  0  0
   14.1520  -41.2630   19.3440 O   0  0  0  0  0  0  0  0  0  0  0  0
   16.1600  -40.3950   15.9910 O   0  0  0  0  0  0  0  0  0  0  0  0
   16.0990  -41.0510   20.7820 C   0  0  0  0  0  0  0  0  0  0  0  0
   16.7770  -42.3060   21.1900 C   0  0  0  0  0  3  0  0  0  0  0  0
   17.3840  -42.4150   22.4540 C   0  0  0  0  0  3  0  0  0  0  0  0
   17.3550  -41.2750   23.3990 C   0  0  0  0  0  0  0  0  0  0  0  0
   16.7030  -40.0660   23.0270 C   0  0  0  0  0  0  0  0  0  0  0  0
   16.0540  -39.9580   21.6970 C   0  0  0  0  0  3  0  0  0  0  0  0
   17.9720  -41.4010   24.6450 O   0  0  0  0  0  0  0  0  0  0  0  0
   18.3980  -42.2030   24.8780 H   0  0  0  0  0  0  0  0  0  0  0  0
   16.6860  -38.9980   23.9300 O   0  0  0  0  0  0  0  0  0  0  0  0
   17.1020  -39.0840   24.7660 H   0  0  0  0  0  0  0  0  0  0  0  0
    9.8360  -41.8370   17.0050 O   0  0  0  0  0  0  0  0  0  0  0  0
    9.3500  -41.8300   16.2040 H   0  0  0  0  0  0  0  0  0  0  0  0
   13.9080  -40.6560   14.4680 O   0  0  0  0  0  0  0  0  0  0  0  0
   13.4230  -40.6470   13.6670 H   0  0  0  0  0  0  0  0  0  0  0  0
   17.5020  -40.5000   18.3930 O   0  0  0  0  0  0  0  0  0  0  0  0
   17.9990  -40.3040   17.6230 H   0  0  0  0  0  0  0  0  0  0  0  0
  1 22  1  0  0  0  0
  1  6  1  0  0  0  0
  2  1  2  0  0  0  0
  3  2  1  0  0  0  0
  3  4  2  0  0  0  0
  4  7  1  0  0  0  0
  4  5  1  0  0  0  0
  5  6  2  0  0  0  0
  5 10  1  0  0  0  0
  7  8  1  0  0  0  0
  8 26  1  0  0  0  0
  8  9  2  0  0  0  0
  9 12  1  0  0  0  0
 10  9  1  0  0  0  0
 11  7  2  0  0  0  0
 12 13  2  0  0  0  0
 12 17  1  0  0  0  0
 13 14  1  0  0  0  0
 14 15  2  0  0  0  0
 15 18  1  0  0  0  0
 16 15  1  0  0  0  0
 16 20  1  0  0  0  0
 17 16  2  0  0  0  0
 18 19  1  0  0  0  0
 20 21  1  0  0  0  0
 23 22  1  0  0  0  0
 24  3  1  0  0  0  0
 25 24  1  0  0  0  0
 27 26  1  0  0  0  0
M  END
>  <minimizedAffinity>
-9.13600159

$$$$

 OpenBabel10112400403D

 27 29  0  0  0  0  0  0  0  0999 V2000
    0.5690  -45.6480   43.5890 C   0  0  0  0  0  0  0  0  0  0  0  0
   -0.7400  -45.7130   42.8980 C   0  0  0  0  0  3  0  0  0  0  0  0
   -1.7540  -44.7530   43.1850 C   0  0  0  0  0  0  0  0  0  0  0  0
   -1.4790  -43.6890   44.1820 C   0  0  0  0  0  0  0  0  0  0  0  0
   -0.2490  -43.6210   44.8380 C   0  0  0  0  0  0  0  0  0  0  0  0
    0.8050  -44.6190   44.5420 C   0  0  0  0  0  3  0  0  0  0  0  0
   -2.4900  -42.6330   44.5440 C   0  0  0  0  0  0  0  0  0  0  0  0
   -2.1030  -41.6190   45.5420 C   0  0  0  0  0  0  0  0  0  0  0  0
   -0.8890  -41.6720   46.1120 C   0  0  0  0  0  0  0  0  0  0  0  0
    0.0060  -42.6190   45.7780 O   0  0  0  0  0  0  0  0  0  0  0  0
   -3.6020  -42.5950   44.0410 O   0  0  0  0  0  0  0  0  0  0  0  0
   -0.4420  -40.6660   47.1530 C   0  0  0  0  0  0  0  0  0  0  0  0
   -1.0070  -40.7840   48.5200 C   0  0  0  0  0  3  0  0  0  0  0  0
   -0.6280  -39.8830   49.5320 C   0  0  0  0  0  3  0  0  0  0  0  0
    0.3430  -38.8020   49.2470 C   0  0  0  0  0  0  0  0  0  0  0  0
    0.8890  -38.6700   47.9400 C   0  0  0  0  0  0  0  0  0  0  0  0
    0.4790  -39.6150   46.8710 C   0  0  0  0  0  3  0  0  0  0  0  0
    0.7120  -37.9240   50.2690 O   0  0  0  0  0  0  0  0  0  0  0  0
    0.3440  -38.0220   51.1260 H   0  0  0  0  0  0  0  0  0  0  0  0
    1.8070  -37.6450   47.6880 O   0  0  0  0  0  0  0  0  0  0  0  0
    2.0540  -37.0580   48.3750 H   0  0  0  0  0  0  0  0  0  0  0  0
    1.5450  -46.6030   43.2900 O   0  0  0  0  0  0  0  0  0  0  0  0
    1.3670  -47.2720   42.6590 H   0  0  0  0  0  0  0  0  0  0  0  0
   -2.9940  -44.7970   42.5440 O   0  0  0  0  0  0  0  0  0  0  0  0
   -3.1720  -45.4670   41.9140 H   0  0  0  0  0  0  0  0  0  0  0  0
   -2.9570  -40.6380   45.8680 O   0  0  0  0  0  0  0  0  0  0  0  0
   -3.8050  -40.6030   45.4700 H   0  0  0  0  0  0  0  0  0  0  0  0
  1  6  1  0  0  0  0
  2  3  1  0  0  0  0
  2  1  2  0  0  0  0
  3  4  2  0  0  0  0
  4  7  1  0  0  0  0
  4  5  1  0  0  0  0
  5 10  1  0  0  0  0
  6  5  2  0  0  0  0
  7  8  1  0  0  0  0
  8 26  1  0  0  0  0
  8  9  2  0  0  0  0
  9 12  1  0  0  0  0
 10  9  1  0  0  0  0
 11  7  2  0  0  0  0
 12 13  1  0  0  0  0
 13 14  2  0  0  0  0
 15 14  1  0  0  0  0
 15 18  1  0  0  0  0
 16 15  2  0  0  0  0
 17 12  2  0  0  0  0
 17 16  1  0  0  0  0
 18 19  1  0  0  0  0
 20 16  1  0  0  0  0
 20 21  1  0  0  0  0
 22  1  1  0  0  0  0
 23 22  1  0  0  0  0
 24  3  1  0  0  0  0
 25 24  1  0  0  0  0
 27 26  1  0  0  0  0
M  END
>  <minimizedAffinity>
-9.06673717

$$$$

 OpenBabel10112400403D

 27 29  0  0  0  0  0  0  0  0999 V2000
   -2.1380  -36.8950   23.2460 C   0  0  0  0  0  0  0  0  0  0  0  0
   -1.1900  -36.0420   22.4920 C   0  0  0  0  0  3  0  0  0  0  0  0
   -0.0030  -36.6020   21.9350 C   0  0  0  0  0  0  0  0  0  0  0  0
    0.2680  -38.0490   22.1200 C   0  0  0  0  0  0  0  0  0  0  0  0
   -0.6190  -38.8600   22.8300 C   0  0  0  0  0  0  0  0  0  0  0  0
   -1.8520  -38.2790   23.4090 C   0  0  0  0  0  3  0  0  0  0  0  0
    1.4950  -38.7250   21.5650 C   0  0  0  0  0  0  0  0  0  0  0  0
    1.6550  -40.1710   21.8030 C   0  0  0  0  0  0  0  0  0  0  0  0
    0.7320  -40.8370   22.5150 C   0  0  0  0  0  0  0  0  0  0  0  0
   -0.3600  -40.2230   23.0040 O   0  0  0  0  0  0  0  0  0  0  0  0
    2.3440  -38.1170   20.9330 O   0  0  0  0  0  0  0  0  0  0  0  0
    0.8510  -42.3190   22.8030 C   0  0  0  0  0  0  0  0  0  0  0  0
    0.6410  -43.2650   21.6790 C   0  0  0  0  0  3  0  0  0  0  0  0
    0.7410  -44.6540   21.8830 C   0  0  0  0  0  3  0  0  0  0  0  0
    1.0600  -45.1930   23.2240 C   0  0  0  0  0  0  0  0  0  0  0  0
    1.2580  -44.3010   24.3150 C   0  0  0  0  0  0  0  0  0  0  0  0
    1.1400  -42.8370   24.1000 C   0  0  0  0  0  3  0  0  0  0  0  0
    1.1640  -46.5740   23.4020 O   0  0  0  0  0  0  0  0  0  0  0  0
    1.0320  -47.1510   22.6750 H   0  0  0  0  0  0  0  0  0  0  0  0
    1.5590  -44.8260   25.5760 O   0  0  0  0  0  0  0  0  0  0  0  0
    1.6300  -45.7530   25.6930 H   0  0  0  0  0  0  0  0  0  0  0  0
   -3.2930  -36.3210   23.7820 O   0  0  0  0  0  0  0  0  0  0  0  0
   -3.4600  -35.4070   23.6620 H   0  0  0  0  0  0  0  0  0  0  0  0
    0.9040  -35.8150   21.2210 O   0  0  0  0  0  0  0  0  0  0  0  0
    0.7360  -34.9010   21.1020 H   0  0  0  0  0  0  0  0  0  0  0  0
    2.7120  -40.8220   21.2950 O   0  0  0  0  0  0  0  0  0  0  0  0
    3.3560  -40.3560   20.7990 H   0  0  0  0  0  0  0  0  0  0  0  0
  1  6  1  0  0  0  0
  1 22  1  0  0  0  0
  2  1  2  0  0  0  0
  3  4  2  0  0  0  0
  3  2  1  0  0  0  0
  4  5  1  0  0  0  0
  5 10  1  0  0  0  0
  5  6  2  0  0  0  0
  7  8  1  0  0  0  0
  7  4  1  0  0  0  0
  8  9  2  0  0  0  0
  9 12  1  0  0  0  0
  9 10  1  0  0  0  0
 11  7  2  0  0  0  0
 12 17  1  0  0  0  0
 13 14  1  0  0  0  0
 13 12  2  0  0  0  0
 14 15  2  0  0  0  0
 15 18  1  0  0  0  0
 15 16  1  0  0  0  0
 16 20  1  0  0  0  0
 17 16  2  0  0  0  0
 19 18  1  0  0  0  0
 20 21  1  0  0  0  0
 23 22  1  0  0  0  0
 24  3  1  0  0  0  0
 25 24  1  0  0  0  0
 26  8  1  0  0  0  0
 27 26  1  0  0  0  0
M  END
>  <minimizedAffinity>
-8.71783352

$$$$

 OpenBabel10112400403D

 27 29  0  0  0  0  0  0  0  0999 V2000
    3.5930  -38.9470   49.3300 C   0  0  0  0  0  0  0  0  0  0  0  0
    2.7770  -38.9020   50.5660 C   0  0  0  0  0  3  0  0  0  0  0  0
    1.5020  -39.5380   50.6110 C   0  0  0  0  0  0  0  0  0  0  0  0
    1.0060  -40.2450   49.4040 C   0  0  0  0  0  0  0  0  0  0  0  0
    1.7670  -40.2920   48.2360 C   0  0  0  0  0  0  0  0  0  0  0  0
    3.0920  -39.6300   48.1880 C   0  0  0  0  0  3  0  0  0  0  0  0
   -0.3270  -40.9450   49.3630 C   0  0  0  0  0  0  0  0  0  0  0  0
   -0.7130  -41.6240   48.1130 C   0  0  0  0  0  0  0  0  0  0  0  0
    0.1070  -41.5840   47.0510 C   0  0  0  0  0  0  0  0  0  0  0  0
    1.2960  -40.9570   47.1010 O   0  0  0  0  0  0  0  0  0  0  0  0
   -1.0820  -40.9660   50.3220 O   0  0  0  0  0  0  0  0  0  0  0  0
   -0.2430  -42.2500   45.7360 C   0  0  0  0  0  0  0  0  0  0  0  0
   -1.2020  -41.5580   44.8390 C   0  0  0  0  0  3  0  0  0  0  0  0
   -1.5640  -42.1230   43.6030 C   0  0  0  0  0  3  0  0  0  0  0  0
   -0.9910  -43.4200   43.1770 C   0  0  0  0  0  0  0  0  0  0  0  0
   -0.0750  -44.1010   44.0260 C   0  0  0  0  0  0  0  0  0  0  0  0
    0.2960  -43.5080   45.3350 C   0  0  0  0  0  3  0  0  0  0  0  0
   -1.3570  -43.9590   41.9410 O   0  0  0  0  0  0  0  0  0  0  0  0
   -1.9610  -43.5000   41.3910 H   0  0  0  0  0  0  0  0  0  0  0  0
    0.4580  -45.3240   43.6080 O   0  0  0  0  0  0  0  0  0  0  0  0
    0.2130  -45.6840   42.7780 H   0  0  0  0  0  0  0  0  0  0  0  0
    4.8390  -38.3140   49.3130 O   0  0  0  0  0  0  0  0  0  0  0  0
    5.1490  -37.8700   50.0770 H   0  0  0  0  0  0  0  0  0  0  0  0
    0.7180  -39.5070   51.7670 O   0  0  0  0  0  0  0  0  0  0  0  0
    1.0280  -39.0620   52.5300 H   0  0  0  0  0  0  0  0  0  0  0  0
   -1.8740  -42.2920   48.0420 O   0  0  0  0  0  0  0  0  0  0  0  0
   -2.4460  -42.3190   48.7840 H   0  0  0  0  0  0  0  0  0  0  0  0
  1  2  1  0  0  0  0
  2  3  2  0  0  0  0
  3 24  1  0  0  0  0
  4  3  1  0  0  0  0
  5  4  2  0  0  0  0
  6  5  1  0  0  0  0
  6  1  2  0  0  0  0
  7  4  1  0  0  0  0
  7 11  2  0  0  0  0
  8  7  1  0  0  0  0
  9 10  1  0  0  0  0
  9  8  2  0  0  0  0
 10  5  1  0  0  0  0
 12  9  1  0  0  0  0
 13 12  2  0  0  0  0
 14 13  1  0  0  0  0
 15 14  2  0  0  0  0
 15 16  1  0  0  0  0
 16 17  2  0  0  0  0
 17 12  1  0  0  0  0
 18 15  1  0  0  0  0
 19 18  1  0  0  0  0
 20 16  1  0  0  0  0
 21 20  1  0  0  0  0
 22  1  1  0  0  0  0
 22 23  1  0  0  0  0
 24 25  1  0  0  0  0
 26  8  1  0  0  0  0
 26 27  1  0  0  0  0
M  END
>  <minimizedAffinity>
-8.51066399

$$$$

 OpenBabel10112400403D

 27 29  0  0  0  0  0  0  0  0999 V2000
   -0.4550  -46.4200   42.6170 C   0  0  0  0  0  0  0  0  0  0  0  0
   -1.7030  -46.0790   41.8930 C   0  0  0  0  0  3  0  0  0  0  0  0
   -2.5320  -45.0130   42.3490 C   0  0  0  0  0  0  0  0  0  0  0  0
   -2.1280  -44.2510   43.5570 C   0  0  0  0  0  0  0  0  0  0  0  0
   -0.9550  -44.5660   44.2450 C   0  0  0  0  0  0  0  0  0  0  0  0
   -0.0930  -45.6730   43.7720 C   0  0  0  0  0  3  0  0  0  0  0  0
   -2.9420  -43.1090   44.1080 C   0  0  0  0  0  0  0  0  0  0  0  0
   -2.4370  -42.4170   45.3090 C   0  0  0  0  0  0  0  0  0  0  0  0
   -1.2980  -42.8270   45.8860 C   0  0  0  0  0  0  0  0  0  0  0  0
   -0.5790  -43.8470   45.3840 O   0  0  0  0  0  0  0  0  0  0  0  0
   -3.9880  -42.7470   43.5950 O   0  0  0  0  0  0  0  0  0  0  0  0
   -0.7390  -42.1650   47.1290 C   0  0  0  0  0  0  0  0  0  0  0  0
    0.4970  -41.3560   46.9900 C   0  0  0  0  0  3  0  0  0  0  0  0
    1.0620  -40.7130   48.1060 C   0  0  0  0  0  3  0  0  0  0  0  0
    0.4300  -40.8340   49.4400 C   0  0  0  0  0  0  0  0  0  0  0  0
   -0.7510  -41.6110   49.5930 C   0  0  0  0  0  0  0  0  0  0  0  0
   -1.3390  -42.2980   48.4160 C   0  0  0  0  0  3  0  0  0  0  0  0
    1.0030  -40.1790   50.5320 O   0  0  0  0  0  0  0  0  0  0  0  0
    1.7820  -39.6700   50.4180 H   0  0  0  0  0  0  0  0  0  0  0  0
   -1.3370  -41.7150   50.8590 O   0  0  0  0  0  0  0  0  0  0  0  0
   -0.9520  -41.2740   51.5910 H   0  0  0  0  0  0  0  0  0  0  0  0
    0.3380  -47.4690   42.1480 O   0  0  0  0  0  0  0  0  0  0  0  0
    0.0800  -47.9470   41.3840 H   0  0  0  0  0  0  0  0  0  0  0  0
   -3.7110  -44.6750   41.6810 O   0  0  0  0  0  0  0  0  0  0  0  0
   -3.9700  -45.1540   40.9180 H   0  0  0  0  0  0  0  0  0  0  0  0
   -3.1090  -41.3720   45.8130 O   0  0  0  0  0  0  0  0  0  0  0  0
   -3.9050  -41.0870   45.4090 H   0  0  0  0  0  0  0  0  0  0  0  0
  1  6  1  0  0  0  0
  2  3  1  0  0  0  0
  2  1  2  0  0  0  0
  3  4  2  0  0  0  0
  4  7  1  0  0  0  0
  4  5  1  0  0  0  0
  5 10  1  0  0  0  0
  6  5  2  0  0  0  0
  7  8  1  0  0  0  0
  8 26  1  0  0  0  0
  8  9  2  0  0  0  0
  9 12  1  0  0  0  0
 10  9  1  0  0  0  0
 11  7  2  0  0  0  0
 12 17  1  0  0  0  0
 13 12  2  0  0  0  0
 13 14  1  0  0  0  0
 14 15  2  0  0  0  0
 15 16  1  0  0  0  0
 15 18  1  0  0  0  0
 16 20  1  0  0  0  0
 17 16  2  0  0  0  0
 19 18  1  0  0  0  0
 20 21  1  0  0  0  0
 22  1  1  0  0  0  0
 23 22  1  0  0  0  0
 24  3  1  0  0  0  0
 25 24  1  0  0  0  0
 27 26  1  0  0  0  0
M  END
>  <minimizedAffinity>
-8.44051456

$$$$

 OpenBabel10112400403D

 27 29  0  0  0  0  0  0  0  0999 V2000
   11.2440  -42.3310   15.0380 C   0  0  0  0  0  0  0  0  0  0  0  0
   12.0360  -42.2130   13.7910 C   0  0  0  0  0  3  0  0  0  0  0  0
   13.4580  -42.1270   13.8460 C   0  0  0  0  0  0  0  0  0  0  0  0
   14.1320  -42.1580   15.1670 C   0  0  0  0  0  0  0  0  0  0  0  0
   13.3940  -42.2680   16.3470 C   0  0  0  0  0  0  0  0  0  0  0  0
   11.9170  -42.3570   16.2910 C   0  0  0  0  0  3  0  0  0  0  0  0
   15.6290  -42.0740   15.3180 C   0  0  0  0  0  0  0  0  0  0  0  0
   16.1890  -42.1250   16.6810 C   0  0  0  0  0  0  0  0  0  0  0  0
   15.3670  -42.2200   17.7380 C   0  0  0  0  0  0  0  0  0  0  0  0
   14.0330  -42.2960   17.5900 O   0  0  0  0  0  0  0  0  0  0  0  0
   16.3760  -41.9690   14.3590 O   0  0  0  0  0  0  0  0  0  0  0  0
   15.8850  -42.2610   19.1610 C   0  0  0  0  0  0  0  0  0  0  0  0
   16.5040  -41.0290   19.7120 C   0  0  0  0  0  3  0  0  0  0  0  0
   17.0000  -41.0030   21.0280 C   0  0  0  0  0  3  0  0  0  0  0  0
   16.9100  -42.2070   21.8860 C   0  0  0  0  0  0  0  0  0  0  0  0
   16.3270  -43.3980   21.3730 C   0  0  0  0  0  0  0  0  0  0  0  0
   15.8140  -43.4260   19.9790 C   0  0  0  0  0  3  0  0  0  0  0  0
   17.4000  -42.1560   23.1930 O   0  0  0  0  0  0  0  0  0  0  0  0
   17.7830  -41.3650   23.5190 H   0  0  0  0  0  0  0  0  0  0  0  0
   16.2480  -44.5260   22.1960 O   0  0  0  0  0  0  0  0  0  0  0  0
   16.5760  -44.4900   23.0730 H   0  0  0  0  0  0  0  0  0  0  0  0
    9.8520  -42.4140   14.9550 O   0  0  0  0  0  0  0  0  0  0  0  0
    9.4310  -42.3950   14.1190 H   0  0  0  0  0  0  0  0  0  0  0  0
   14.2220  -42.0140   12.6810 O   0  0  0  0  0  0  0  0  0  0  0  0
   13.8000  -41.9940   11.8450 H   0  0  0  0  0  0  0  0  0  0  0  0
   17.5170  -42.0910   16.8620 O   0  0  0  0  0  0  0  0  0  0  0  0
   18.0900  -42.0240   16.1230 H   0  0  0  0  0  0  0  0  0  0  0  0
  1  6  1  0  0  0  0
  2  3  1  0  0  0  0
  2  1  2  0  0  0  0
  3  4  2  0  0  0  0
  4  7  1  0  0  0  0
  4  5  1  0  0  0  0
  5 10  1  0  0  0  0
  6  5  2  0  0  0  0
  7  8  1  0  0  0  0
  8 26  1  0  0  0  0
  8  9  2  0  0  0  0
  9 12  1  0  0  0  0
 10  9  1  0  0  0  0
 11  7  2  0  0  0  0
 12 13  2  0  0  0  0
 12 17  1  0  0  0  0
 13 14  1  0  0  0  0
 14 15  2  0  0  0  0
 15 18  1  0  0  0  0
 16 15  1  0  0  0  0
 16 20  1  0  0  0  0
 17 16  2  0  0  0  0
 18 19  1  0  0  0  0
 20 21  1  0  0  0  0
 22  1  1  0  0  0  0
 23 22  1  0  0  0  0
 24  3  1  0  0  0  0
 25 24  1  0  0  0  0
 27 26  1  0  0  0  0
M  END
>  <minimizedAffinity>
-8.43686676

$$$$
