
 OpenBabel10112400403D

 27 29  0  0  0  0  0  0  0  0999 V2000
  -21.7700  -47.3060   36.0980 C   0  0  0  0  0  0  0  0  0  0  0  0
  -20.8110  -48.0570   36.9420 C   0  0  0  0  0  3  0  0  0  0  0  0
  -19.8560  -48.9300   36.3440 C   0  0  0  0  0  0  0  0  0  0  0  0
  -19.8360  -49.0750   34.8670 C   0  0  0  0  0  0  0  0  0  0  0  0
  -20.7350  -48.3720   34.0650 C   0  0  0  0  0  0  0  0  0  0  0  0
  -21.7290  -47.4650   34.6850 C   0  0  0  0  0  3  0  0  0  0  0  0
  -18.8610  -49.9730   34.1520 C   0  0  0  0  0  0  0  0  0  0  0  0
  -18.9260  -50.0300   32.6800 C   0  0  0  0  0  0  0  0  0  0  0  0
  -19.8510  -49.3120   32.0240 C   0  0  0  0  0  0  0  0  0  0  0  0
  -20.7150  -48.5120   32.6750 O   0  0  0  0  0  0  0  0  0  0  0  0
  -18.0320  -50.6420   34.7480 O   0  0  0  0  0  0  0  0  0  0  0  0
  -19.9750  -49.3420   30.5140 C   0  0  0  0  0  0  0  0  0  0  0  0
  -21.0640  -50.1590   29.9230 C   0  0  0  0  0  3  0  0  0  0  0  0
  -21.2340  -50.2250   28.5280 C   0  0  0  0  0  3  0  0  0  0  0  0
  -20.3270  -49.4770   27.6270 C   0  0  0  0  0  0  0  0  0  0  0  0
  -19.2730  -48.6950   28.1770 C   0  0  0  0  0  0  0  0  0  0  0  0
  -19.0890  -48.6360   29.6490 C   0  0  0  0  0  3  0  0  0  0  0  0
  -20.5190  -49.5490   26.2460 O   0  0  0  0  0  0  0  0  0  0  0  0
  -21.2170  -50.0680   25.8970 H   0  0  0  0  0  0  0  0  0  0  0  0
  -18.4260  -47.9940   27.3130 O   0  0  0  0  0  0  0  0  0  0  0  0
  -18.5570  -48.0420   26.3860 H   0  0  0  0  0  0  0  0  0  0  0  0
  -22.6950  -46.4570   36.7100 O   0  0  0  0  0  0  0  0  0  0  0  0
  -22.7040  -46.3680   37.6430 H   0  0  0  0  0  0  0  0  0  0  0  0
  -18.9430  -49.6470   37.1220 O   0  0  0  0  0  0  0  0  0  0  0  0
  -18.9530  -49.5590   38.0550 H   0  0  0  0  0  0  0  0  0  0  0  0
  -18.0540  -50.7870   31.9980 O   0  0  0  0  0  0  0  0  0  0  0  0
  -17.4090  -51.2890   32.4570 H   0  0  0  0  0  0  0  0  0  0  0  0
  1 22  1  0  0  0  0
  1  2  1  0  0  0  0
  3  2  2  0  0  0  0
  3 24  1  0  0  0  0
  4  3  1  0  0  0  0
  5  6  1  0  0  0  0
  5  4  2  0  0  0  0
  6  1  2  0  0  0  0
  7 11  2  0  0  0  0
  7  4  1  0  0  0  0
  8  7  1  0  0  0  0
  9 10  1  0  0  0  0
  9  8  2  0  0  0  0
 10  5  1  0  0  0  0
 12  9  1  0  0  0  0
 13 12  1  0  0  0  0
 14 13  2  0  0  0  0
 15 16  2  0  0  0  0
 15 14  1  0  0  0  0
 16 17  1  0  0  0  0
 17 12  2  0  0  0  0
 18 15  1  0  0  0  0
 19 18  1  0  0  0  0
 20 16  1  0  0  0  0
 21 20  1  0  0  0  0
 22 23  1  0  0  0  0
 24 25  1  0  0  0  0
 26 27  1  0  0  0  0
 26  8  1  0  0  0  0
M  END
>  <minimizedAffinity>
-5.46434879

$$$$

 OpenBabel10112400403D

 27 29  0  0  0  0  0  0  0  0999 V2000
  -19.1880  -48.8880   27.8600 C   0  0  0  0  0  0  0  0  0  0  0  0
  -20.2340  -49.7810   27.3110 C   0  0  0  0  0  3  0  0  0  0  0  0
  -21.2600  -50.2940   28.1570 C   0  0  0  0  0  0  0  0  0  0  0  0
  -21.2650  -49.9210   29.5930 C   0  0  0  0  0  0  0  0  0  0  0  0
  -20.2830  -49.0800   30.1190 C   0  0  0  0  0  0  0  0  0  0  0  0
  -19.2160  -48.5470   29.2410 C   0  0  0  0  0  3  0  0  0  0  0  0
  -22.3110  -50.4140   30.5580 C   0  0  0  0  0  0  0  0  0  0  0  0
  -22.2220  -49.9700   31.9610 C   0  0  0  0  0  0  0  0  0  0  0  0
  -21.2160  -49.1680   32.3450 C   0  0  0  0  0  0  0  0  0  0  0  0
  -20.2890  -48.7320   31.4730 O   0  0  0  0  0  0  0  0  0  0  0  0
  -23.2150  -51.1590   30.2140 O   0  0  0  0  0  0  0  0  0  0  0  0
  -21.0650  -48.6910   33.7750 C   0  0  0  0  0  0  0  0  0  0  0  0
  -19.9590  -49.2610   34.5850 C   0  0  0  0  0  3  0  0  0  0  0  0
  -19.7640  -48.8560   35.9170 C   0  0  0  0  0  3  0  0  0  0  0  0
  -20.6610  -47.8520   36.5330 C   0  0  0  0  0  0  0  0  0  0  0  0
  -21.7310  -47.3000   35.7750 C   0  0  0  0  0  0  0  0  0  0  0  0
  -21.9410  -47.7380   34.3720 C   0  0  0  0  0  3  0  0  0  0  0  0
  -20.4440  -47.4570   37.8550 O   0  0  0  0  0  0  0  0  0  0  0  0
  -19.7360  -47.8280   38.3440 H   0  0  0  0  0  0  0  0  0  0  0  0
  -22.5680  -46.3520   36.3700 O   0  0  0  0  0  0  0  0  0  0  0  0
  -22.4200  -46.0870   37.2570 H   0  0  0  0  0  0  0  0  0  0  0  0
  -18.1930  -48.4000   27.0090 O   0  0  0  0  0  0  0  0  0  0  0  0
  -18.1950  -48.6370   26.1020 H   0  0  0  0  0  0  0  0  0  0  0  0
  -22.2560  -51.1380   27.6580 O   0  0  0  0  0  0  0  0  0  0  0  0
  -22.2560  -51.3760   26.7520 H   0  0  0  0  0  0  0  0  0  0  0  0
  -23.1520  -50.3530   32.8470 O   0  0  0  0  0  0  0  0  0  0  0  0
  -23.8540  -50.9140   32.5780 H   0  0  0  0  0  0  0  0  0  0  0  0
  1  6  1  0  0  0  0
  2  1  2  0  0  0  0
  2  3  1  0  0  0  0
  3  4  2  0  0  0  0
  4  5  1  0  0  0  0
  4  7  1  0  0  0  0
  5 10  1  0  0  0  0
  6  5  2  0  0  0  0
  7  8  1  0  0  0  0
  8  9  2  0  0  0  0
  8 26  1  0  0  0  0
  9 12  1  0  0  0  0
 10  9  1  0  0  0  0
 11  7  2  0  0  0  0
 12 17  2  0  0  0  0
 12 13  1  0  0  0  0
 13 14  2  0  0  0  0
 14 15  1  0  0  0  0
 15 18  1  0  0  0  0
 16 20  1  0  0  0  0
 16 15  2  0  0  0  0
 17 16  1  0  0  0  0
 18 19  1  0  0  0  0
 20 21  1  0  0  0  0
 22  1  1  0  0  0  0
 23 22  1  0  0  0  0
 24  3  1  0  0  0  0
 25 24  1  0  0  0  0
 27 26  1  0  0  0  0
M  END
>  <minimizedAffinity>
-5.1572113

$$$$

 OpenBabel10112400403D

 27 29  0  0  0  0  0  0  0  0999 V2000
  -27.4470  -47.2080   24.9890 C   0  0  0  0  0  0  0  0  0  0  0  0
  -27.4270  -48.3290   25.9570 C   0  0  0  0  0  3  0  0  0  0  0  0
  -27.4440  -48.0710   27.3590 C   0  0  0  0  0  0  0  0  0  0  0  0
  -27.4830  -46.6650   27.8330 C   0  0  0  0  0  0  0  0  0  0  0  0
  -27.5020  -45.6030   26.9280 C   0  0  0  0  0  0  0  0  0  0  0  0
  -27.4830  -45.8700   25.4720 C   0  0  0  0  0  3  0  0  0  0  0  0
  -27.5060  -46.3000   29.2950 C   0  0  0  0  0  0  0  0  0  0  0  0
  -27.5550  -44.8700   29.6490 C   0  0  0  0  0  0  0  0  0  0  0  0
  -27.5550  -43.9410   28.6800 C   0  0  0  0  0  0  0  0  0  0  0  0
  -27.5370  -44.2800   27.3780 O   0  0  0  0  0  0  0  0  0  0  0  0
  -27.4870  -47.1430   30.1770 O   0  0  0  0  0  0  0  0  0  0  0  0
  -27.5890  -42.4570   28.9840 C   0  0  0  0  0  0  0  0  0  0  0  0
  -26.2940  -41.7520   29.1510 C   0  0  0  0  0  3  0  0  0  0  0  0
  -26.2590  -40.3740   29.4310 C   0  0  0  0  0  3  0  0  0  0  0  0
  -27.5180  -39.6050   29.5620 C   0  0  0  0  0  0  0  0  0  0  0  0
  -28.7690  -40.2660   29.4120 C   0  0  0  0  0  0  0  0  0  0  0  0
  -28.8020  -41.7230   29.1280 C   0  0  0  0  0  3  0  0  0  0  0  0
  -27.4600  -38.2360   29.8310 O   0  0  0  0  0  0  0  0  0  0  0  0
  -26.6300  -37.8120   29.9270 H   0  0  0  0  0  0  0  0  0  0  0  0
  -29.9480  -39.5250   29.5370 O   0  0  0  0  0  0  0  0  0  0  0  0
  -29.9080  -38.6060   29.7160 H   0  0  0  0  0  0  0  0  0  0  0  0
  -27.4280  -47.4890   23.6210 O   0  0  0  0  0  0  0  0  0  0  0  0
  -27.4050  -48.3780   23.3260 H   0  0  0  0  0  0  0  0  0  0  0  0
  -27.4260  -49.1140   28.2880 O   0  0  0  0  0  0  0  0  0  0  0  0
  -27.4010  -50.0030   27.9930 H   0  0  0  0  0  0  0  0  0  0  0  0
  -27.6140  -44.4990   30.9370 O   0  0  0  0  0  0  0  0  0  0  0  0
  -27.6130  -45.1480   31.6120 H   0  0  0  0  0  0  0  0  0  0  0  0
  1  6  2  0  0  0  0
  1  2  1  0  0  0  0
  2  3  2  0  0  0  0
  3  4  1  0  0  0  0
  3 24  1  0  0  0  0
  4  7  1  0  0  0  0
  5 10  1  0  0  0  0
  5  4  2  0  0  0  0
  6  5  1  0  0  0  0
  7  8  1  0  0  0  0
  7 11  2  0  0  0  0
  8 26  1  0  0  0  0
  9 12  1  0  0  0  0
  9  8  2  0  0  0  0
 10  9  1  0  0  0  0
 12 17  2  0  0  0  0
 12 13  1  0  0  0  0
 13 14  2  0  0  0  0
 14 15  1  0  0  0  0
 15 18  1  0  0  0  0
 16 20  1  0  0  0  0
 16 15  2  0  0  0  0
 17 16  1  0  0  0  0
 18 19  1  0  0  0  0
 20 21  1  0  0  0  0
 22  1  1  0  0  0  0
 23 22  1  0  0  0  0
 25 24  1  0  0  0  0
 26 27  1  0  0  0  0
M  END
>  <minimizedAffinity>
-5.01641941

$$$$

 OpenBabel10112400403D

 27 29  0  0  0  0  0  0  0  0999 V2000
  -27.1690  -47.7580   31.8030 C   0  0  0  0  0  0  0  0  0  0  0  0
  -27.0360  -48.5760   30.5740 C   0  0  0  0  0  3  0  0  0  0  0  0
  -27.0350  -47.9540   29.2920 C   0  0  0  0  0  0  0  0  0  0  0  0
  -27.1670  -46.4790   29.2050 C   0  0  0  0  0  0  0  0  0  0  0  0
  -27.2920  -45.7010   30.3570 C   0  0  0  0  0  0  0  0  0  0  0  0
  -27.2950  -46.3460   31.6900 C   0  0  0  0  0  3  0  0  0  0  0  0
  -27.1730  -45.7390   27.8930 C   0  0  0  0  0  0  0  0  0  0  0  0
  -27.2990  -44.2700   27.9290 C   0  0  0  0  0  0  0  0  0  0  0  0
  -27.4270  -43.6390   29.1060 C   0  0  0  0  0  0  0  0  0  0  0  0
  -27.4180  -44.3110   30.2720 O   0  0  0  0  0  0  0  0  0  0  0  0
  -27.0750  -46.3130   26.8200 O   0  0  0  0  0  0  0  0  0  0  0  0
  -27.5760  -42.1350   29.2040 C   0  0  0  0  0  0  0  0  0  0  0  0
  -26.3400  -41.3130   29.2140 C   0  0  0  0  0  3  0  0  0  0  0  0
  -26.4120  -39.9110   29.2990 C   0  0  0  0  0  3  0  0  0  0  0  0
  -27.7260  -39.2320   29.3790 C   0  0  0  0  0  0  0  0  0  0  0  0
  -28.9210  -40.0040   29.3780 C   0  0  0  0  0  0  0  0  0  0  0  0
  -28.8410  -41.4850   29.3000 C   0  0  0  0  0  3  0  0  0  0  0  0
  -27.7740  -37.8390   29.4530 O   0  0  0  0  0  0  0  0  0  0  0  0
  -26.9800  -37.3410   29.4530 H   0  0  0  0  0  0  0  0  0  0  0  0
  -30.1530  -39.3480   29.4530 O   0  0  0  0  0  0  0  0  0  0  0  0
  -30.1840  -38.4130   29.5010 H   0  0  0  0  0  0  0  0  0  0  0  0
  -27.1680  -48.3940   33.0470 O   0  0  0  0  0  0  0  0  0  0  0  0
  -27.0830  -49.3260   33.0970 H   0  0  0  0  0  0  0  0  0  0  0  0
  -26.9110  -48.7080   28.1220 O   0  0  0  0  0  0  0  0  0  0  0  0
  -26.8270  -49.6390   28.1720 H   0  0  0  0  0  0  0  0  0  0  0  0
  -27.2720  -43.5660   26.7880 O   0  0  0  0  0  0  0  0  0  0  0  0
  -27.1830  -44.0080   25.9660 H   0  0  0  0  0  0  0  0  0  0  0  0
  1 22  1  0  0  0  0
  2  1  2  0  0  0  0
  3  2  1  0  0  0  0
  4  3  2  0  0  0  0
  4  5  1  0  0  0  0
  5  6  2  0  0  0  0
  6  1  1  0  0  0  0
  7  8  1  0  0  0  0
  7  4  1  0  0  0  0
  8  9  2  0  0  0  0
  9 12  1  0  0  0  0
  9 10  1  0  0  0  0
 10  5  1  0  0  0  0
 11  7  2  0  0  0  0
 12 13  2  0  0  0  0
 12 17  1  0  0  0  0
 13 14  1  0  0  0  0
 14 15  2  0  0  0  0
 15 18  1  0  0  0  0
 16 15  1  0  0  0  0
 16 20  1  0  0  0  0
 17 16  2  0  0  0  0
 18 19  1  0  0  0  0
 20 21  1  0  0  0  0
 22 23  1  0  0  0  0
 24 25  1  0  0  0  0
 24  3  1  0  0  0  0
 26  8  1  0  0  0  0
 27 26  1  0  0  0  0
M  END
>  <minimizedAffinity>
-4.89498138

$$$$

 OpenBabel10112400403D

 27 29  0  0  0  0  0  0  0  0999 V2000
  -26.6110  -40.3760   28.3680 C   0  0  0  0  0  0  0  0  0  0  0  0
  -28.0200  -40.0040   28.0980 C   0  0  0  0  0  3  0  0  0  0  0  0
  -29.0620  -40.9610   28.2690 C   0  0  0  0  0  0  0  0  0  0  0  0
  -28.7170  -42.3320   28.7190 C   0  0  0  0  0  0  0  0  0  0  0  0
  -27.3930  -42.6910   28.9740 C   0  0  0  0  0  0  0  0  0  0  0  0
  -26.3080  -41.6980   28.7970 C   0  0  0  0  0  3  0  0  0  0  0  0
  -29.7540  -43.4050   28.9270 C   0  0  0  0  0  0  0  0  0  0  0  0
  -29.2960  -44.7290   29.3870 C   0  0  0  0  0  0  0  0  0  0  0  0
  -27.9870  -44.9510   29.5840 C   0  0  0  0  0  0  0  0  0  0  0  0
  -27.0710  -43.9840   29.3970 O   0  0  0  0  0  0  0  0  0  0  0  0
  -30.9420  -43.2100   28.7300 O   0  0  0  0  0  0  0  0  0  0  0  0
  -27.4560  -46.2950   30.0410 C   0  0  0  0  0  0  0  0  0  0  0  0
  -27.0380  -47.2680   29.0010 C   0  0  0  0  0  3  0  0  0  0  0  0
  -26.5340  -48.5300   29.3620 C   0  0  0  0  0  3  0  0  0  0  0  0
  -26.4120  -48.9080   30.7880 C   0  0  0  0  0  0  0  0  0  0  0  0
  -26.8150  -47.9910   31.7980 C   0  0  0  0  0  0  0  0  0  0  0  0
  -27.3570  -46.6630   31.4140 C   0  0  0  0  0  3  0  0  0  0  0  0
  -25.9000  -50.1630   31.1240 O   0  0  0  0  0  0  0  0  0  0  0  0
  -25.6380  -50.7580   30.4490 H   0  0  0  0  0  0  0  0  0  0  0  0
  -26.6920  -48.3620   33.1410 O   0  0  0  0  0  0  0  0  0  0  0  0
  -26.3470  -49.2040   33.3650 H   0  0  0  0  0  0  0  0  0  0  0  0
  -25.6090  -39.4190   28.1920 O   0  0  0  0  0  0  0  0  0  0  0  0
  -25.8310  -38.5540   27.9080 H   0  0  0  0  0  0  0  0  0  0  0  0
  -30.3970  -40.6300   28.0210 O   0  0  0  0  0  0  0  0  0  0  0  0
  -30.6190  -39.7650   27.7360 H   0  0  0  0  0  0  0  0  0  0  0  0
  -30.1870  -45.7040   29.6210 O   0  0  0  0  0  0  0  0  0  0  0  0
  -31.1000  -45.5470   29.4820 H   0  0  0  0  0  0  0  0  0  0  0  0
  1  6  1  0  0  0  0
  2  3  1  0  0  0  0
  2  1  2  0  0  0  0
  3  4  2  0  0  0  0
  4  7  1  0  0  0  0
  4  5  1  0  0  0  0
  5 10  1  0  0  0  0
  6  5  2  0  0  0  0
  7  8  1  0  0  0  0
  8  9  2  0  0  0  0
  8 26  1  0  0  0  0
  9 12  1  0  0  0  0
 10  9  1  0  0  0  0
 11  7  2  0  0  0  0
 12 17  1  0  0  0  0
 13 14  1  0  0  0  0
 13 12  2  0  0  0  0
 14 15  2  0  0  0  0
 15 18  1  0  0  0  0
 15 16  1  0  0  0  0
 16 20  1  0  0  0  0
 17 16  2  0  0  0  0
 19 18  1  0  0  0  0
 20 21  1  0  0  0  0
 22  1  1  0  0  0  0
 23 22  1  0  0  0  0
 24  3  1  0  0  0  0
 25 24  1  0  0  0  0
 27 26  1  0  0  0  0
M  END
>  <minimizedAffinity>
-4.69650078

$$$$

 OpenBabel10112400403D

 27 29  0  0  0  0  0  0  0  0999 V2000
  -27.3580  -46.9720   25.2420 C   0  0  0  0  0  0  0  0  0  0  0  0
  -27.0850  -45.5170   25.2000 C   0  0  0  0  0  3  0  0  0  0  0  0
  -27.0550  -44.7540   26.4040 C   0  0  0  0  0  0  0  0  0  0  0  0
  -27.3000  -45.4380   27.6980 C   0  0  0  0  0  0  0  0  0  0  0  0
  -27.5580  -46.8090   27.7470 C   0  0  0  0  0  0  0  0  0  0  0  0
  -27.5910  -47.6020   26.4970 C   0  0  0  0  0  3  0  0  0  0  0  0
  -27.2850  -44.7110   29.0170 C   0  0  0  0  0  0  0  0  0  0  0  0
  -27.5320  -45.4960   30.2410 C   0  0  0  0  0  0  0  0  0  0  0  0
  -27.7820  -46.8120   30.1510 C   0  0  0  0  0  0  0  0  0  0  0  0
  -27.7910  -47.4490   28.9670 O   0  0  0  0  0  0  0  0  0  0  0  0
  -27.0760  -43.5120   29.0980 O   0  0  0  0  0  0  0  0  0  0  0  0
  -28.0570  -47.6660   31.3720 C   0  0  0  0  0  0  0  0  0  0  0  0
  -29.4730  -47.9210   31.7370 C   0  0  0  0  0  3  0  0  0  0  0  0
  -29.7930  -48.7100   32.8570 C   0  0  0  0  0  3  0  0  0  0  0  0
  -28.7200  -49.2980   33.6900 C   0  0  0  0  0  0  0  0  0  0  0  0
  -27.3570  -49.0570   33.3600 C   0  0  0  0  0  0  0  0  0  0  0  0
  -27.0220  -48.2160   32.1840 C   0  0  0  0  0  3  0  0  0  0  0  0
  -29.0610  -50.0850   34.7930 O   0  0  0  0  0  0  0  0  0  0  0  0
  -29.9620  -50.2360   35.0000 H   0  0  0  0  0  0  0  0  0  0  0  0
  -26.3550  -49.6210   34.1560 O   0  0  0  0  0  0  0  0  0  0  0  0
  -26.5860  -50.1500   34.8950 H   0  0  0  0  0  0  0  0  0  0  0  0
  -27.3820  -47.6950   24.0480 O   0  0  0  0  0  0  0  0  0  0  0  0
  -27.2260  -47.2600   23.2330 H   0  0  0  0  0  0  0  0  0  0  0  0
  -26.7990  -43.3800   26.3850 O   0  0  0  0  0  0  0  0  0  0  0  0
  -26.6440  -42.9450   25.5700 H   0  0  0  0  0  0  0  0  0  0  0  0
  -27.4910  -44.8990   31.4410 O   0  0  0  0  0  0  0  0  0  0  0  0
  -27.3170  -43.9800   31.5020 H   0  0  0  0  0  0  0  0  0  0  0  0
  1  6  1  0  0  0  0
  2  1  2  0  0  0  0
  2  3  1  0  0  0  0
  3  4  2  0  0  0  0
  4  5  1  0  0  0  0
  4  7  1  0  0  0  0
  5 10  1  0  0  0  0
  6  5  2  0  0  0  0
  7 11  2  0  0  0  0
  7  8  1  0  0  0  0
  8 26  1  0  0  0  0
  9  8  2  0  0  0  0
  9 12  1  0  0  0  0
 10  9  1  0  0  0  0
 12 13  2  0  0  0  0
 12 17  1  0  0  0  0
 13 14  1  0  0  0  0
 14 15  2  0  0  0  0
 15 18  1  0  0  0  0
 16 15  1  0  0  0  0
 16 20  1  0  0  0  0
 17 16  2  0  0  0  0
 18 19  1  0  0  0  0
 20 21  1  0  0  0  0
 22  1  1  0  0  0  0
 23 22  1  0  0  0  0
 24  3  1  0  0  0  0
 25 24  1  0  0  0  0
 26 27  1  0  0  0  0
M  END
>  <minimizedAffinity>
-4.41553926

$$$$

 OpenBabel10112400403D

 27 29  0  0  0  0  0  0  0  0999 V2000
  -19.3890  -48.2730   27.9510 C   0  0  0  0  0  0  0  0  0  0  0  0
  -18.7510  -49.5630   27.5970 C   0  0  0  0  0  3  0  0  0  0  0  0
  -18.6290  -50.5970   28.5710 C   0  0  0  0  0  0  0  0  0  0  0  0
  -19.1500  -50.3630   29.9410 C   0  0  0  0  0  0  0  0  0  0  0  0
  -19.7520  -49.1510   30.2830 C   0  0  0  0  0  0  0  0  0  0  0  0
  -19.8790  -48.0760   29.2720 C   0  0  0  0  0  3  0  0  0  0  0  0
  -19.0650  -51.4000   31.0310 C   0  0  0  0  0  0  0  0  0  0  0  0
  -19.6250  -51.0610   32.3520 C   0  0  0  0  0  0  0  0  0  0  0  0
  -20.1670  -49.8510   32.5570 C   0  0  0  0  0  0  0  0  0  0  0  0
  -20.2390  -48.9340   31.5750 O   0  0  0  0  0  0  0  0  0  0  0  0
  -18.5550  -52.4940   30.8510 O   0  0  0  0  0  0  0  0  0  0  0  0
  -20.7450  -49.4410   33.8960 C   0  0  0  0  0  0  0  0  0  0  0  0
  -22.1770  -49.7330   34.1550 C   0  0  0  0  0  3  0  0  0  0  0  0
  -22.7700  -49.3810   35.3800 C   0  0  0  0  0  3  0  0  0  0  0  0
  -21.9720  -48.7130   36.4340 C   0  0  0  0  0  0  0  0  0  0  0  0
  -20.6000  -48.4190   36.2010 C   0  0  0  0  0  0  0  0  0  0  0  0
  -19.9790  -48.7820   34.9020 C   0  0  0  0  0  3  0  0  0  0  0  0
  -22.5790  -48.3810   37.6470 O   0  0  0  0  0  0  0  0  0  0  0  0
  -23.4840  -48.5800   37.7880 H   0  0  0  0  0  0  0  0  0  0  0  0
  -19.8590  -47.7900   37.2070 O   0  0  0  0  0  0  0  0  0  0  0  0
  -20.2680  -47.5690   38.0210 H   0  0  0  0  0  0  0  0  0  0  0  0
  -19.4960  -47.2770   26.9780 O   0  0  0  0  0  0  0  0  0  0  0  0
  -19.1670  -47.4290   26.1140 H   0  0  0  0  0  0  0  0  0  0  0  0
  -18.0310  -51.8200   28.2570 O   0  0  0  0  0  0  0  0  0  0  0  0
  -17.7010  -51.9710   27.3940 H   0  0  0  0  0  0  0  0  0  0  0  0
  -19.6050  -51.9660   33.3420 O   0  0  0  0  0  0  0  0  0  0  0  0
  -19.2250  -52.8100   33.1970 H   0  0  0  0  0  0  0  0  0  0  0  0
  1  6  1  0  0  0  0
  2  1  2  0  0  0  0
  2  3  1  0  0  0  0
  3  4  2  0  0  0  0
  4  5  1  0  0  0  0
  4  7  1  0  0  0  0
  5 10  1  0  0  0  0
  6  5  2  0  0  0  0
  7  8  1  0  0  0  0
  8  9  2  0  0  0  0
  8 26  1  0  0  0  0
  9 12  1  0  0  0  0
 10  9  1  0  0  0  0
 11  7  2  0  0  0  0
 12 13  2  0  0  0  0
 12 17  1  0  0  0  0
 13 14  1  0  0  0  0
 14 15  2  0  0  0  0
 15 18  1  0  0  0  0
 16 15  1  0  0  0  0
 16 20  1  0  0  0  0
 17 16  2  0  0  0  0
 18 19  1  0  0  0  0
 20 21  1  0  0  0  0
 22  1  1  0  0  0  0
 23 22  1  0  0  0  0
 24  3  1  0  0  0  0
 25 24  1  0  0  0  0
 27 26  1  0  0  0  0
M  END
>  <minimizedAffinity>
-4.39347696

$$$$

 OpenBabel10112400403D

 27 29  0  0  0  0  0  0  0  0999 V2000
  -24.1350  -50.5560   31.9920 C   0  0  0  0  0  0  0  0  0  0  0  0
  -25.0350  -50.3100   33.1420 C   0  0  0  0  0  3  0  0  0  0  0  0
  -26.1950  -49.4950   32.9880 C   0  0  0  0  0  0  0  0  0  0  0  0
  -26.4850  -48.8970   31.6610 C   0  0  0  0  0  0  0  0  0  0  0  0
  -25.6420  -49.1230   30.5720 C   0  0  0  0  0  0  0  0  0  0  0  0
  -24.4370  -49.9690   30.7310 C   0  0  0  0  0  3  0  0  0  0  0  0
  -27.6870  -48.0250   31.4080 C   0  0  0  0  0  0  0  0  0  0  0  0
  -27.8810  -47.4940   30.0460 C   0  0  0  0  0  0  0  0  0  0  0  0
  -26.9860  -47.7750   29.0860 C   0  0  0  0  0  0  0  0  0  0  0  0
  -25.9180  -48.5570   29.3240 O   0  0  0  0  0  0  0  0  0  0  0  0
  -28.4910  -47.7530   32.2850 O   0  0  0  0  0  0  0  0  0  0  0  0
  -27.1250  -47.2460   27.6730 C   0  0  0  0  0  0  0  0  0  0  0  0
  -26.7040  -45.8470   27.4110 C   0  0  0  0  0  3  0  0  0  0  0  0
  -26.8050  -45.2980   26.1190 C   0  0  0  0  0  3  0  0  0  0  0  0
  -27.3330  -46.1110   25.0000 C   0  0  0  0  0  0  0  0  0  0  0  0
  -27.7470  -47.4520   25.2350 C   0  0  0  0  0  0  0  0  0  0  0  0
  -27.6500  -48.0240   26.6010 C   0  0  0  0  0  3  0  0  0  0  0  0
  -27.4150  -45.5500   23.7240 O   0  0  0  0  0  0  0  0  0  0  0  0
  -27.1390  -44.6650   23.5830 H   0  0  0  0  0  0  0  0  0  0  0  0
  -28.2420  -48.2070   24.1670 O   0  0  0  0  0  0  0  0  0  0  0  0
  -28.2960  -47.8290   23.3110 H   0  0  0  0  0  0  0  0  0  0  0  0
  -23.0060  -51.3590   32.1700 O   0  0  0  0  0  0  0  0  0  0  0  0
  -22.8260  -51.7350   33.0100 H   0  0  0  0  0  0  0  0  0  0  0  0
  -27.0560  -49.2510   34.0600 O   0  0  0  0  0  0  0  0  0  0  0  0
  -26.8760  -49.6260   34.9000 H   0  0  0  0  0  0  0  0  0  0  0  0
  -28.9560  -46.7440   29.7650 O   0  0  0  0  0  0  0  0  0  0  0  0
  -29.5800  -46.5480   30.4360 H   0  0  0  0  0  0  0  0  0  0  0  0
  1 22  1  0  0  0  0
  1  2  1  0  0  0  0
  3  2  2  0  0  0  0
  3 24  1  0  0  0  0
  4  3  1  0  0  0  0
  5  6  1  0  0  0  0
  5  4  2  0  0  0  0
  6  1  2  0  0  0  0
  7  4  1  0  0  0  0
  7 11  2  0  0  0  0
  8  7  1  0  0  0  0
  9 10  1  0  0  0  0
  9  8  2  0  0  0  0
 10  5  1  0  0  0  0
 12  9  1  0  0  0  0
 13 12  1  0  0  0  0
 14 13  2  0  0  0  0
 15 16  2  0  0  0  0
 15 14  1  0  0  0  0
 16 17  1  0  0  0  0
 17 12  2  0  0  0  0
 18 15  1  0  0  0  0
 19 18  1  0  0  0  0
 20 16  1  0  0  0  0
 21 20  1  0  0  0  0
 22 23  1  0  0  0  0
 24 25  1  0  0  0  0
 26  8  1  0  0  0  0
 26 27  1  0  0  0  0
M  END
>  <minimizedAffinity>
-4.35948753

$$$$

 OpenBabel10112400403D

 27 29  0  0  0  0  0  0  0  0999 V2000
  -28.0110  -39.7100   24.8410 C   0  0  0  0  0  0  0  0  0  0  0  0
  -27.4550  -38.8570   25.9170 C   0  0  0  0  0  3  0  0  0  0  0  0
  -27.0900  -39.4270   27.1720 C   0  0  0  0  0  0  0  0  0  0  0  0
  -27.2740  -40.8840   27.3830 C   0  0  0  0  0  0  0  0  0  0  0  0
  -27.7980  -41.6950   26.3760 C   0  0  0  0  0  0  0  0  0  0  0  0
  -28.1780  -41.1040   25.0720 C   0  0  0  0  0  3  0  0  0  0  0  0
  -26.9140  -41.5700   28.6760 C   0  0  0  0  0  0  0  0  0  0  0  0
  -27.1310  -43.0260   28.7690 C   0  0  0  0  0  0  0  0  0  0  0  0
  -27.6560  -43.6900   27.7280 C   0  0  0  0  0  0  0  0  0  0  0  0
  -27.9720  -43.0670   26.5790 O   0  0  0  0  0  0  0  0  0  0  0  0
  -26.4540  -40.9630   29.6290 O   0  0  0  0  0  0  0  0  0  0  0  0
  -27.9150  -45.1830   27.7720 C   0  0  0  0  0  0  0  0  0  0  0  0
  -27.1170  -46.0540   26.8740 C   0  0  0  0  0  3  0  0  0  0  0  0
  -27.3080  -47.4470   26.8710 C   0  0  0  0  0  3  0  0  0  0  0  0
  -28.3100  -48.0670   27.7670 C   0  0  0  0  0  0  0  0  0  0  0  0
  -29.0900  -47.2470   28.6290 C   0  0  0  0  0  0  0  0  0  0  0  0
  -28.8940  -45.7760   28.6220 C   0  0  0  0  0  3  0  0  0  0  0  0
  -28.4770  -49.4540   27.7540 O   0  0  0  0  0  0  0  0  0  0  0  0
  -27.9570  -49.9830   27.1810 H   0  0  0  0  0  0  0  0  0  0  0  0
  -30.0320  -47.8480   29.4700 O   0  0  0  0  0  0  0  0  0  0  0  0
  -30.1420  -48.7790   29.4610 H   0  0  0  0  0  0  0  0  0  0  0  0
  -28.3610  -39.1260   23.6210 O   0  0  0  0  0  0  0  0  0  0  0  0
  -28.2430  -38.2060   23.4920 H   0  0  0  0  0  0  0  0  0  0  0  0
  -26.5640  -38.6400   28.1990 O   0  0  0  0  0  0  0  0  0  0  0  0
  -26.4460  -37.7190   28.0690 H   0  0  0  0  0  0  0  0  0  0  0  0
  -26.7900  -43.6840   29.8860 O   0  0  0  0  0  0  0  0  0  0  0  0
  -26.4240  -43.2190   30.6130 H   0  0  0  0  0  0  0  0  0  0  0  0
  1  6  2  0  0  0  0
  1  2  1  0  0  0  0
  2  3  2  0  0  0  0
  3  4  1  0  0  0  0
  3 24  1  0  0  0  0
  4  7  1  0  0  0  0
  5 10  1  0  0  0  0
  5  4  2  0  0  0  0
  6  5  1  0  0  0  0
  7  8  1  0  0  0  0
  7 11  2  0  0  0  0
  8 26  1  0  0  0  0
  9 12  1  0  0  0  0
  9  8  2  0  0  0  0
 10  9  1  0  0  0  0
 12 17  1  0  0  0  0
 13 12  2  0  0  0  0
 14 13  1  0  0  0  0
 14 15  2  0  0  0  0
 15 16  1  0  0  0  0
 16 20  1  0  0  0  0
 17 16  2  0  0  0  0
 18 15  1  0  0  0  0
 19 18  1  0  0  0  0
 21 20  1  0  0  0  0
 22  1  1  0  0  0  0
 23 22  1  0  0  0  0
 25 24  1  0  0  0  0
 26 27  1  0  0  0  0
M  END
>  <minimizedAffinity>
-4.30029964

$$$$
