
 OpenBabel10122400283D

 27 29  0  0  0  0  0  0  0  0999 V2000
   25.4750   52.9690    9.5530 C   0  0  0  0  0  0  0  0  0  0  0  0
   25.7410   54.2530    8.8630 C   0  0  0  0  0  3  0  0  0  0  0  0
   26.6050   54.2960    7.7300 C   0  0  0  0  0  0  0  0  0  0  0  0
   27.2330   53.0390    7.2530 C   0  0  0  0  0  0  0  0  0  0  0  0
   26.9890   51.8260    7.8970 C   0  0  0  0  0  0  0  0  0  0  0  0
   26.0920   51.7790    9.0750 C   0  0  0  0  0  3  0  0  0  0  0  0
   28.1570   52.9920    6.0630 C   0  0  0  0  0  0  0  0  0  0  0  0
   28.7150   51.6840    5.6730 C   0  0  0  0  0  0  0  0  0  0  0  0
   28.4110   50.5890    6.3870 C   0  0  0  0  0  0  0  0  0  0  0  0
   27.5830   50.6440    7.4460 O   0  0  0  0  0  0  0  0  0  0  0  0
   28.4480   53.9910    5.4250 O   0  0  0  0  0  0  0  0  0  0  0  0
   28.9660   49.2220    6.0430 C   0  0  0  0  0  0  0  0  0  0  0  0
   30.3580   48.9130    6.4560 C   0  0  0  0  0  3  0  0  0  0  0  0
   30.9290   47.6590    6.1690 C   0  0  0  0  0  3  0  0  0  0  0  0
   30.1480   46.6280    5.4490 C   0  0  0  0  0  0  0  0  0  0  0  0
   28.8150   46.9100    5.0390 C   0  0  0  0  0  0  0  0  0  0  0  0
   28.2180   48.2370    5.3340 C   0  0  0  0  0  3  0  0  0  0  0  0
   30.7310   45.3870    5.1830 O   0  0  0  0  0  0  0  0  0  0  0  0
   31.6100   45.2140    5.4580 H   0  0  0  0  0  0  0  0  0  0  0  0
   28.0890   45.9240    4.3620 O   0  0  0  0  0  0  0  0  0  0  0  0
   28.4820   45.0920    4.1850 H   0  0  0  0  0  0  0  0  0  0  0  0
   24.6250   52.9550   10.6610 O   0  0  0  0  0  0  0  0  0  0  0  0
   24.2300   53.7510   10.9590 H   0  0  0  0  0  0  0  0  0  0  0  0
   26.8680   55.4970    7.0650 O   0  0  0  0  0  0  0  0  0  0  0  0
   26.4740   56.2920    7.3640 H   0  0  0  0  0  0  0  0  0  0  0  0
   29.5120   51.5880    4.5990 O   0  0  0  0  0  0  0  0  0  0  0  0
   29.7230   52.3540    4.1020 H   0  0  0  0  0  0  0  0  0  0  0  0
  1 22  1  0  0  0  0
  2  1  2  0  0  0  0
  3  2  1  0  0  0  0
  4  3  2  0  0  0  0
  4  5  1  0  0  0  0
  5  6  2  0  0  0  0
  6  1  1  0  0  0  0
  7  4  1  0  0  0  0
  8  7  1  0  0  0  0
  8  9  2  0  0  0  0
  9 10  1  0  0  0  0
 10  5  1  0  0  0  0
 11  7  2  0  0  0  0
 12  9  1  0  0  0  0
 12 13  1  0  0  0  0
 14 13  2  0  0  0  0
 15 14  1  0  0  0  0
 16 17  1  0  0  0  0
 16 15  2  0  0  0  0
 17 12  2  0  0  0  0
 18 15  1  0  0  0  0
 18 19  1  0  0  0  0
 20 16  1  0  0  0  0
 21 20  1  0  0  0  0
 22 23  1  0  0  0  0
 24 25  1  0  0  0  0
 24  3  1  0  0  0  0
 26  8  1  0  0  0  0
 27 26  1  0  0  0  0
M  END
>  <minimizedAffinity>
-9.02082157

$$$$

 OpenBabel10122400283D

 27 29  0  0  0  0  0  0  0  0999 V2000
   30.1650   47.3320    6.2050 C   0  0  0  0  0  0  0  0  0  0  0  0
   31.2670   47.8590    5.3670 C   0  0  0  0  0  3  0  0  0  0  0  0
   31.4150   49.2640    5.1720 C   0  0  0  0  0  0  0  0  0  0  0  0
   30.4510   50.1870    5.8200 C   0  0  0  0  0  0  0  0  0  0  0  0
   29.4100   49.6990    6.6110 C   0  0  0  0  0  0  0  0  0  0  0  0
   29.2550   48.2400    6.8130 C   0  0  0  0  0  3  0  0  0  0  0  0
   30.5330   51.6840    5.6700 C   0  0  0  0  0  0  0  0  0  0  0  0
   29.5260   52.5050    6.3690 C   0  0  0  0  0  0  0  0  0  0  0  0
   28.5640   51.9090    7.0900 C   0  0  0  0  0  0  0  0  0  0  0  0
   28.5030   50.5720    7.2180 O   0  0  0  0  0  0  0  0  0  0  0  0
   31.3960   52.2260    4.9980 O   0  0  0  0  0  0  0  0  0  0  0  0
   27.4950   52.7000    7.8170 C   0  0  0  0  0  0  0  0  0  0  0  0
   26.6000   51.9670    8.7470 C   0  0  0  0  0  3  0  0  0  0  0  0
   25.5910   52.6450    9.4540 C   0  0  0  0  0  3  0  0  0  0  0  0
   25.4070   54.1040    9.2810 C   0  0  0  0  0  0  0  0  0  0  0  0
   26.2500   54.8220    8.3880 C   0  0  0  0  0  0  0  0  0  0  0  0
   27.3080   54.1010    7.6350 C   0  0  0  0  0  3  0  0  0  0  0  0
   24.4040   54.7590   10.0000 O   0  0  0  0  0  0  0  0  0  0  0  0
   23.8550   54.2750   10.5850 H   0  0  0  0  0  0  0  0  0  0  0  0
   26.0650   56.2000    8.2370 O   0  0  0  0  0  0  0  0  0  0  0  0
   25.3920   56.6380    8.7210 H   0  0  0  0  0  0  0  0  0  0  0  0
   30.0440   45.9510    6.3790 O   0  0  0  0  0  0  0  0  0  0  0  0
   30.6550   45.3710    5.9690 H   0  0  0  0  0  0  0  0  0  0  0  0
   32.4470   49.7810    4.3850 O   0  0  0  0  0  0  0  0  0  0  0  0
   33.0570   49.2010    3.9740 H   0  0  0  0  0  0  0  0  0  0  0  0
   29.5820   53.8420    6.2940 O   0  0  0  0  0  0  0  0  0  0  0  0
   30.2540   54.2570    5.7890 H   0  0  0  0  0  0  0  0  0  0  0  0
  1 22  1  0  0  0  0
  1  6  1  0  0  0  0
  2  1  2  0  0  0  0
  3  2  1  0  0  0  0
  3  4  2  0  0  0  0
  4  5  1  0  0  0  0
  5  6  2  0  0  0  0
  5 10  1  0  0  0  0
  7  4  1  0  0  0  0
  7  8  1  0  0  0  0
  8  9  2  0  0  0  0
  9 10  1  0  0  0  0
  9 12  1  0  0  0  0
 11  7  2  0  0  0  0
 12 13  1  0  0  0  0
 13 14  2  0  0  0  0
 15 14  1  0  0  0  0
 15 18  1  0  0  0  0
 16 15  2  0  0  0  0
 17 12  2  0  0  0  0
 17 16  1  0  0  0  0
 18 19  1  0  0  0  0
 20 16  1  0  0  0  0
 20 21  1  0  0  0  0
 23 22  1  0  0  0  0
 24  3  1  0  0  0  0
 25 24  1  0  0  0  0
 26  8  1  0  0  0  0
 27 26  1  0  0  0  0
M  END
>  <minimizedAffinity>
-8.84911346

$$$$

 OpenBabel10122400283D

 27 29  0  0  0  0  0  0  0  0999 V2000
   33.0190   50.4890    4.6910 C   0  0  0  0  0  0  0  0  0  0  0  0
   32.5500   49.3480    3.8700 C   0  0  0  0  0  3  0  0  0  0  0  0
   31.1670   49.0040    3.8400 C   0  0  0  0  0  0  0  0  0  0  0  0
   30.2060   49.8030    4.6400 C   0  0  0  0  0  0  0  0  0  0  0  0
   30.6400   50.8780    5.4170 C   0  0  0  0  0  0  0  0  0  0  0  0
   32.0770   51.2370    5.4500 C   0  0  0  0  0  3  0  0  0  0  0  0
   28.7280   49.5110    4.6660 C   0  0  0  0  0  0  0  0  0  0  0  0
   27.8670   50.3780    5.4910 C   0  0  0  0  0  0  0  0  0  0  0  0
   28.4120   51.3750    6.2050 C   0  0  0  0  0  0  0  0  0  0  0  0
   29.7330   51.6270    6.1720 O   0  0  0  0  0  0  0  0  0  0  0  0
   28.2340   48.5920    4.0320 O   0  0  0  0  0  0  0  0  0  0  0  0
   27.5790   52.2890    7.0810 C   0  0  0  0  0  0  0  0  0  0  0  0
   27.4370   53.7080    6.6690 C   0  0  0  0  0  3  0  0  0  0  0  0
   26.6740   54.6040    7.4390 C   0  0  0  0  0  3  0  0  0  0  0  0
   25.9980   54.1440    8.6730 C   0  0  0  0  0  0  0  0  0  0  0  0
   26.1290   52.7890    9.0870 C   0  0  0  0  0  0  0  0  0  0  0  0
   26.9440   51.8480    8.2790 C   0  0  0  0  0  3  0  0  0  0  0  0
   25.2370   55.0490    9.4170 O   0  0  0  0  0  0  0  0  0  0  0  0
   25.1590   55.9390    9.1330 H   0  0  0  0  0  0  0  0  0  0  0  0
   25.4830   52.3700   10.2540 O   0  0  0  0  0  0  0  0  0  0  0  0
   24.9720   52.9780   10.7520 H   0  0  0  0  0  0  0  0  0  0  0  0
   34.3800   50.8050    4.7030 O   0  0  0  0  0  0  0  0  0  0  0  0
   34.9830   50.2980    4.1950 H   0  0  0  0  0  0  0  0  0  0  0  0
   30.7040   47.9320    3.0720 O   0  0  0  0  0  0  0  0  0  0  0  0
   31.3070   47.4250    2.5650 H   0  0  0  0  0  0  0  0  0  0  0  0
   26.5410   50.1790    5.5150 O   0  0  0  0  0  0  0  0  0  0  0  0
   26.1620   49.4820    5.0160 H   0  0  0  0  0  0  0  0  0  0  0  0
  1 22  1  0  0  0  0
  1  6  1  0  0  0  0
  2  1  2  0  0  0  0
  3  2  1  0  0  0  0
  3  4  2  0  0  0  0
  4  7  1  0  0  0  0
  4  5  1  0  0  0  0
  5  6  2  0  0  0  0
  5 10  1  0  0  0  0
  7  8  1  0  0  0  0
  8 26  1  0  0  0  0
  8  9  2  0  0  0  0
  9 12  1  0  0  0  0
 10  9  1  0  0  0  0
 11  7  2  0  0  0  0
 12 17  1  0  0  0  0
 13 12  2  0  0  0  0
 13 14  1  0  0  0  0
 14 15  2  0  0  0  0
 15 16  1  0  0  0  0
 15 18  1  0  0  0  0
 16 20  1  0  0  0  0
 17 16  2  0  0  0  0
 19 18  1  0  0  0  0
 20 21  1  0  0  0  0
 23 22  1  0  0  0  0
 24  3  1  0  0  0  0
 25 24  1  0  0  0  0
 27 26  1  0  0  0  0
M  END
>  <minimizedAffinity>
-8.4355154

$$$$

 OpenBabel10122400283D

 27 29  0  0  0  0  0  0  0  0999 V2000
   25.2860   46.0550    4.1720 C   0  0  0  0  0  0  0  0  0  0  0  0
   26.6070   45.4050    4.0070 C   0  0  0  0  0  3  0  0  0  0  0  0
   27.7860   46.0330    4.5060 C   0  0  0  0  0  0  0  0  0  0  0  0
   27.6700   47.3440    5.1910 C   0  0  0  0  0  0  0  0  0  0  0  0
   26.4300   47.9640    5.3490 C   0  0  0  0  0  0  0  0  0  0  0  0
   25.2040   47.3130    4.8310 C   0  0  0  0  0  3  0  0  0  0  0  0
   28.8620   48.0770    5.7490 C   0  0  0  0  0  0  0  0  0  0  0  0
   28.6260   49.3700    6.4190 C   0  0  0  0  0  0  0  0  0  0  0  0
   27.3810   49.8660    6.4940 C   0  0  0  0  0  0  0  0  0  0  0  0
   26.3250   49.2000    5.9930 O   0  0  0  0  0  0  0  0  0  0  0  0
   29.9970   47.6360    5.6650 O   0  0  0  0  0  0  0  0  0  0  0  0
   27.0810   51.1950    7.1570 C   0  0  0  0  0  0  0  0  0  0  0  0
   27.5350   52.4310    6.4720 C   0  0  0  0  0  3  0  0  0  0  0  0
   27.2830   53.6950    7.0350 C   0  0  0  0  0  3  0  0  0  0  0  0
   26.5580   53.8120    8.3210 C   0  0  0  0  0  0  0  0  0  0  0  0
   26.1210   52.6370    8.9940 C   0  0  0  0  0  0  0  0  0  0  0  0
   26.3980   51.3030    8.4040 C   0  0  0  0  0  3  0  0  0  0  0  0
   26.3100   55.0770    8.8570 O   0  0  0  0  0  0  0  0  0  0  0  0
   26.6030   55.8430    8.4030 H   0  0  0  0  0  0  0  0  0  0  0  0
   25.4360   52.7630   10.2070 O   0  0  0  0  0  0  0  0  0  0  0  0
   25.2700   53.6140   10.5650 H   0  0  0  0  0  0  0  0  0  0  0  0
   24.1470   45.4180    3.6740 O   0  0  0  0  0  0  0  0  0  0  0  0
   24.2240   44.5900    3.2420 H   0  0  0  0  0  0  0  0  0  0  0  0
   29.0410   45.4360    4.3610 O   0  0  0  0  0  0  0  0  0  0  0  0
   29.1180   44.6080    3.9290 H   0  0  0  0  0  0  0  0  0  0  0  0
   29.6510   50.0400    6.9640 O   0  0  0  0  0  0  0  0  0  0  0  0
   30.5200   49.6930    6.9100 H   0  0  0  0  0  0  0  0  0  0  0  0
  1  6  1  0  0  0  0
  2  1  2  0  0  0  0
  2  3  1  0  0  0  0
  3  4  2  0  0  0  0
  4  5  1  0  0  0  0
  4  7  1  0  0  0  0
  5 10  1  0  0  0  0
  6  5  2  0  0  0  0
  7  8  1  0  0  0  0
  8  9  2  0  0  0  0
  8 26  1  0  0  0  0
  9 12  1  0  0  0  0
 10  9  1  0  0  0  0
 11  7  2  0  0  0  0
 12 17  1  0  0  0  0
 13 14  1  0  0  0  0
 13 12  2  0  0  0  0
 14 15  2  0  0  0  0
 15 18  1  0  0  0  0
 15 16  1  0  0  0  0
 16 20  1  0  0  0  0
 17 16  2  0  0  0  0
 19 18  1  0  0  0  0
 20 21  1  0  0  0  0
 22  1  1  0  0  0  0
 23 22  1  0  0  0  0
 24  3  1  0  0  0  0
 25 24  1  0  0  0  0
 27 26  1  0  0  0  0
M  END
>  <minimizedAffinity>
-8.29396152

$$$$

 OpenBabel10122400283D

 27 29  0  0  0  0  0  0  0  0999 V2000
   26.4840   52.2770    8.7280 C   0  0  0  0  0  0  0  0  0  0  0  0
   27.2250   53.3750    8.0640 C   0  0  0  0  0  3  0  0  0  0  0  0
   28.1330   53.0910    7.0030 C   0  0  0  0  0  0  0  0  0  0  0  0
   28.3250   51.6840    6.5730 C   0  0  0  0  0  0  0  0  0  0  0  0
   27.6320   50.6440    7.1940 C   0  0  0  0  0  0  0  0  0  0  0  0
   26.6880   50.9370    8.2970 C   0  0  0  0  0  3  0  0  0  0  0  0
   29.2630   51.2940    5.4600 C   0  0  0  0  0  0  0  0  0  0  0  0
   29.3650   49.8640    5.1120 C   0  0  0  0  0  0  0  0  0  0  0  0
   28.6520   48.9580    5.7980 C   0  0  0  0  0  0  0  0  0  0  0  0
   27.8160   49.3190    6.7880 O   0  0  0  0  0  0  0  0  0  0  0  0
   29.9260   52.1160    4.8490 O   0  0  0  0  0  0  0  0  0  0  0  0
   28.7280   47.4750    5.4950 C   0  0  0  0  0  0  0  0  0  0  0  0
   29.7970   46.6850    6.1550 C   0  0  0  0  0  3  0  0  0  0  0  0
   29.9170   45.3030    5.9170 C   0  0  0  0  0  3  0  0  0  0  0  0
   28.9760   44.6160    5.0040 C   0  0  0  0  0  0  0  0  0  0  0  0
   27.9500   45.3590    4.3570 C   0  0  0  0  0  0  0  0  0  0  0  0
   27.8320   46.8190    4.6010 C   0  0  0  0  0  3  0  0  0  0  0  0
   29.1080   43.2420    4.7900 O   0  0  0  0  0  0  0  0  0  0  0  0
   29.7890   42.7640    5.2220 H   0  0  0  0  0  0  0  0  0  0  0  0
   27.0680   44.6950    3.4980 O   0  0  0  0  0  0  0  0  0  0  0  0
   27.1580   43.7730    3.3570 H   0  0  0  0  0  0  0  0  0  0  0  0
   25.6000   52.5820    9.7660 O   0  0  0  0  0  0  0  0  0  0  0  0
   25.4810   53.4730   10.0330 H   0  0  0  0  0  0  0  0  0  0  0  0
   28.8410   54.1120    6.3640 O   0  0  0  0  0  0  0  0  0  0  0  0
   28.7230   55.0020    6.6320 H   0  0  0  0  0  0  0  0  0  0  0  0
   30.1590   49.4750    4.1040 O   0  0  0  0  0  0  0  0  0  0  0  0
   30.6570   50.1090    3.6270 H   0  0  0  0  0  0  0  0  0  0  0  0
  1 22  1  0  0  0  0
  2  1  2  0  0  0  0
  3  2  1  0  0  0  0
  4  3  2  0  0  0  0
  4  5  1  0  0  0  0
  5  6  2  0  0  0  0
  6  1  1  0  0  0  0
  7  4  1  0  0  0  0
  8  7  1  0  0  0  0
  8  9  2  0  0  0  0
  9 10  1  0  0  0  0
 10  5  1  0  0  0  0
 11  7  2  0  0  0  0
 12  9  1  0  0  0  0
 12 13  1  0  0  0  0
 14 13  2  0  0  0  0
 15 14  1  0  0  0  0
 16 17  1  0  0  0  0
 16 15  2  0  0  0  0
 17 12  2  0  0  0  0
 18 15  1  0  0  0  0
 18 19  1  0  0  0  0
 20 16  1  0  0  0  0
 21 20  1  0  0  0  0
 22 23  1  0  0  0  0
 24 25  1  0  0  0  0
 24  3  1  0  0  0  0
 26  8  1  0  0  0  0
 27 26  1  0  0  0  0
M  END
>  <minimizedAffinity>
-8.16277599

$$$$

 OpenBabel10122400283D

 27 29  0  0  0  0  0  0  0  0999 V2000
   26.6920   54.6620    7.9140 C   0  0  0  0  0  0  0  0  0  0  0  0
   26.1500   53.5100    8.6710 C   0  0  0  0  0  3  0  0  0  0  0  0
   26.7270   52.2150    8.5230 C   0  0  0  0  0  0  0  0  0  0  0  0
   27.8760   52.0390    7.6010 C   0  0  0  0  0  0  0  0  0  0  0  0
   28.3930   53.1180    6.8840 C   0  0  0  0  0  0  0  0  0  0  0  0
   27.7940   54.4640    7.0370 C   0  0  0  0  0  3  0  0  0  0  0  0
   28.5480   50.7070    7.3850 C   0  0  0  0  0  0  0  0  0  0  0  0
   29.6900   50.6530    6.4530 C   0  0  0  0  0  0  0  0  0  0  0  0
   30.0820   51.7650    5.8120 C   0  0  0  0  0  0  0  0  0  0  0  0
   29.4750   52.9480    6.0160 O   0  0  0  0  0  0  0  0  0  0  0  0
   28.1800   49.6920    7.9530 O   0  0  0  0  0  0  0  0  0  0  0  0
   31.2380   51.7660    4.8330 C   0  0  0  0  0  0  0  0  0  0  0  0
   30.9630   51.3550    3.4330 C   0  0  0  0  0  3  0  0  0  0  0  0
   31.9940   51.3390    2.4760 C   0  0  0  0  0  3  0  0  0  0  0  0
   33.3700   51.7340    2.8510 C   0  0  0  0  0  0  0  0  0  0  0  0
   33.6540   52.1240    4.1890 C   0  0  0  0  0  0  0  0  0  0  0  0
   32.5660   52.1290    5.2010 C   0  0  0  0  0  3  0  0  0  0  0  0
   34.3760   51.7200    1.8820 O   0  0  0  0  0  0  0  0  0  0  0  0
   34.1770   51.4610    1.0030 H   0  0  0  0  0  0  0  0  0  0  0  0
   34.9590   52.4960    4.5270 O   0  0  0  0  0  0  0  0  0  0  0  0
   35.6320   52.4870    3.8760 H   0  0  0  0  0  0  0  0  0  0  0  0
   26.1080   55.9200    8.0780 O   0  0  0  0  0  0  0  0  0  0  0  0
   25.3820   56.0280    8.6610 H   0  0  0  0  0  0  0  0  0  0  0  0
   26.2300   51.1160    9.2270 O   0  0  0  0  0  0  0  0  0  0  0  0
   25.5040   51.2230    9.8100 H   0  0  0  0  0  0  0  0  0  0  0  0
   30.3420   49.4980    6.2570 O   0  0  0  0  0  0  0  0  0  0  0  0
   30.0660   48.7220    6.7050 H   0  0  0  0  0  0  0  0  0  0  0  0
  1 22  1  0  0  0  0
  1  2  1  0  0  0  0
  3  2  2  0  0  0  0
  3 24  1  0  0  0  0
  4  3  1  0  0  0  0
  5  6  1  0  0  0  0
  5  4  2  0  0  0  0
  6  1  2  0  0  0  0
  7  4  1  0  0  0  0
  7 11  2  0  0  0  0
  8  7  1  0  0  0  0
  9 10  1  0  0  0  0
  9  8  2  0  0  0  0
 10  5  1  0  0  0  0
 12 17  1  0  0  0  0
 12  9  1  0  0  0  0
 13 12  2  0  0  0  0
 14 15  2  0  0  0  0
 14 13  1  0  0  0  0
 15 16  1  0  0  0  0
 16 20  1  0  0  0  0
 16 17  2  0  0  0  0
 18 15  1  0  0  0  0
 19 18  1  0  0  0  0
 21 20  1  0  0  0  0
 22 23  1  0  0  0  0
 24 25  1  0  0  0  0
 26  8  1  0  0  0  0
 26 27  1  0  0  0  0
M  END
>  <minimizedAffinity>
-7.88371801

$$$$

 OpenBabel10122400283D

 27 29  0  0  0  0  0  0  0  0999 V2000
   35.4150   61.7720   29.5530 C   0  0  0  0  0  0  0  0  0  0  0  0
   36.4750   60.8400   29.1000 C   0  0  0  0  0  3  0  0  0  0  0  0
   37.6780   61.3430   28.5260 C   0  0  0  0  0  0  0  0  0  0  0  0
   37.8540   62.8110   28.3890 C   0  0  0  0  0  0  0  0  0  0  0  0
   36.8610   63.6950   28.8120 C   0  0  0  0  0  0  0  0  0  0  0  0
   35.6090   63.1730   29.4080 C   0  0  0  0  0  3  0  0  0  0  0  0
   39.0930   63.4290   27.7960 C   0  0  0  0  0  0  0  0  0  0  0  0
   39.1630   64.9000   27.7190 C   0  0  0  0  0  0  0  0  0  0  0  0
   38.1300   65.6400   28.1500 C   0  0  0  0  0  0  0  0  0  0  0  0
   37.0290   65.0760   28.6800 O   0  0  0  0  0  0  0  0  0  0  0  0
   40.0260   62.7560   27.3860 O   0  0  0  0  0  0  0  0  0  0  0  0
   38.1380   67.1540   28.0830 C   0  0  0  0  0  0  0  0  0  0  0  0
   38.5330   67.9020   29.3020 C   0  0  0  0  0  3  0  0  0  0  0  0
   38.5650   69.3080   29.3010 C   0  0  0  0  0  3  0  0  0  0  0  0
   38.2030   70.0650   28.0810 C   0  0  0  0  0  0  0  0  0  0  0  0
   37.8150   69.3640   26.9050 C   0  0  0  0  0  0  0  0  0  0  0  0
   37.7720   67.8800   26.9120 C   0  0  0  0  0  3  0  0  0  0  0  0
   38.2500   71.4600   28.0990 O   0  0  0  0  0  0  0  0  0  0  0  0
   38.5080   71.9100   28.8810 H   0  0  0  0  0  0  0  0  0  0  0  0
   37.4780   70.0930   25.7600 O   0  0  0  0  0  0  0  0  0  0  0  0
   37.5110   71.0300   25.7740 H   0  0  0  0  0  0  0  0  0  0  0  0
   34.2450   61.2520   30.1120 O   0  0  0  0  0  0  0  0  0  0  0  0
   34.1380   60.3250   30.1970 H   0  0  0  0  0  0  0  0  0  0  0  0
   38.6900   60.4820   28.0930 O   0  0  0  0  0  0  0  0  0  0  0  0
   38.5820   59.5550   28.1780 H   0  0  0  0  0  0  0  0  0  0  0  0
   40.2610   65.4960   27.2330 O   0  0  0  0  0  0  0  0  0  0  0  0
   40.9820   64.9780   26.9320 H   0  0  0  0  0  0  0  0  0  0  0  0
  1 22  1  0  0  0  0
  2  1  2  0  0  0  0
  3  2  1  0  0  0  0
  4  3  2  0  0  0  0
  4  5  1  0  0  0  0
  5  6  2  0  0  0  0
  6  1  1  0  0  0  0
  7  4  1  0  0  0  0
  8  7  1  0  0  0  0
  8  9  2  0  0  0  0
  9 10  1  0  0  0  0
 10  5  1  0  0  0  0
 11  7  2  0  0  0  0
 12  9  1  0  0  0  0
 12 13  1  0  0  0  0
 14 13  2  0  0  0  0
 15 18  1  0  0  0  0
 15 14  1  0  0  0  0
 16 17  1  0  0  0  0
 16 15  2  0  0  0  0
 17 12  2  0  0  0  0
 18 19  1  0  0  0  0
 20 21  1  0  0  0  0
 20 16  1  0  0  0  0
 22 23  1  0  0  0  0
 24 25  1  0  0  0  0
 24  3  1  0  0  0  0
 26  8  1  0  0  0  0
 27 26  1  0  0  0  0
M  END
>  <minimizedAffinity>
-7.85227919

$$$$

 OpenBabel10122400283D

 27 29  0  0  0  0  0  0  0  0999 V2000
   38.0630   69.4390   26.6500 C   0  0  0  0  0  0  0  0  0  0  0  0
   38.6920   70.0710   27.8330 C   0  0  0  0  0  3  0  0  0  0  0  0
   38.8900   69.3220   29.0290 C   0  0  0  0  0  0  0  0  0  0  0  0
   38.4570   67.9030   29.0720 C   0  0  0  0  0  0  0  0  0  0  0  0
   37.8620   67.3000   27.9620 C   0  0  0  0  0  0  0  0  0  0  0  0
   37.6560   68.0780   26.7190 C   0  0  0  0  0  3  0  0  0  0  0  0
   38.6280   67.0370   30.2930 C   0  0  0  0  0  0  0  0  0  0  0  0
   38.1700   65.6370   30.2170 C   0  0  0  0  0  0  0  0  0  0  0  0
   37.5990   65.1820   29.0910 C   0  0  0  0  0  0  0  0  0  0  0  0
   37.4540   65.9640   28.0070 O   0  0  0  0  0  0  0  0  0  0  0  0
   39.1290   67.4560   31.3240 O   0  0  0  0  0  0  0  0  0  0  0  0
   37.0960   63.7590   28.9600 C   0  0  0  0  0  0  0  0  0  0  0  0
   37.9930   62.7590   28.3290 C   0  0  0  0  0  3  0  0  0  0  0  0
   37.5850   61.4210   28.1820 C   0  0  0  0  0  3  0  0  0  0  0  0
   36.2510   60.9890   28.6580 C   0  0  0  0  0  0  0  0  0  0  0  0
   35.3750   61.9350   29.2590 C   0  0  0  0  0  0  0  0  0  0  0  0
   35.8040   63.3490   29.4020 C   0  0  0  0  0  3  0  0  0  0  0  0
   35.8690   59.6540   28.5110 O   0  0  0  0  0  0  0  0  0  0  0  0
   36.4560   59.0400   28.1130 H   0  0  0  0  0  0  0  0  0  0  0  0
   34.1190   61.5110   29.7040 O   0  0  0  0  0  0  0  0  0  0  0  0
   33.8650   60.6140   29.6060 H   0  0  0  0  0  0  0  0  0  0  0  0
   37.8810   70.1970   25.4900 O   0  0  0  0  0  0  0  0  0  0  0  0
   38.1570   71.0920   25.4670 H   0  0  0  0  0  0  0  0  0  0  0  0
   39.4820   69.8990   30.1560 O   0  0  0  0  0  0  0  0  0  0  0  0
   39.7560   70.7940   30.1330 H   0  0  0  0  0  0  0  0  0  0  0  0
   38.3360   64.8190   31.2660 O   0  0  0  0  0  0  0  0  0  0  0  0
   38.7330   65.1390   32.0530 H   0  0  0  0  0  0  0  0  0  0  0  0
  1  6  2  0  0  0  0
  1  2  1  0  0  0  0
  2  3  2  0  0  0  0
  3  4  1  0  0  0  0
  3 24  1  0  0  0  0
  4  7  1  0  0  0  0
  5 10  1  0  0  0  0
  5  4  2  0  0  0  0
  6  5  1  0  0  0  0
  7 11  2  0  0  0  0
  8  7  1  0  0  0  0
  8 26  1  0  0  0  0
  9  8  2  0  0  0  0
 10  9  1  0  0  0  0
 12  9  1  0  0  0  0
 12 17  1  0  0  0  0
 13 12  2  0  0  0  0
 14 13  1  0  0  0  0
 14 15  2  0  0  0  0
 15 16  1  0  0  0  0
 16 17  2  0  0  0  0
 16 20  1  0  0  0  0
 18 15  1  0  0  0  0
 19 18  1  0  0  0  0
 21 20  1  0  0  0  0
 22  1  1  0  0  0  0
 23 22  1  0  0  0  0
 25 24  1  0  0  0  0
 26 27  1  0  0  0  0
M  END
>  <minimizedAffinity>
-7.72898626

$$$$

 OpenBabel10122400283D

 27 29  0  0  0  0  0  0  0  0999 V2000
   36.6230   61.1780   31.6750 C   0  0  0  0  0  0  0  0  0  0  0  0
   36.1730   60.2130   30.6450 C   0  0  0  0  0  3  0  0  0  0  0  0
   36.2600   60.5440   29.2610 C   0  0  0  0  0  0  0  0  0  0  0  0
   36.8080   61.8660   28.8690 C   0  0  0  0  0  0  0  0  0  0  0  0
   37.2340   62.7810   29.8330 C   0  0  0  0  0  0  0  0  0  0  0  0
   37.1430   62.4390   31.2710 C   0  0  0  0  0  3  0  0  0  0  0  0
   36.9380   62.2980   27.4310 C   0  0  0  0  0  0  0  0  0  0  0  0
   37.5060   63.6320   27.1590 C   0  0  0  0  0  0  0  0  0  0  0  0
   37.8670   64.4250   28.1800 C   0  0  0  0  0  0  0  0  0  0  0  0
   37.7470   64.0270   29.4590 O   0  0  0  0  0  0  0  0  0  0  0  0
   36.5930   61.5850   26.5030 O   0  0  0  0  0  0  0  0  0  0  0  0
   38.4420   65.8090   27.9620 C   0  0  0  0  0  0  0  0  0  0  0  0
   39.9000   65.9960   28.1630 C   0  0  0  0  0  3  0  0  0  0  0  0
   40.4950   67.2570   27.9720 C   0  0  0  0  0  3  0  0  0  0  0  0
   39.6720   68.4180   27.5660 C   0  0  0  0  0  0  0  0  0  0  0  0
   38.2710   68.2600   27.3760 C   0  0  0  0  0  0  0  0  0  0  0  0
   37.6440   66.9310   27.5890 C   0  0  0  0  0  3  0  0  0  0  0  0
   40.2840   69.6590   27.3740 O   0  0  0  0  0  0  0  0  0  0  0  0
   41.2080   69.7500   27.5020 H   0  0  0  0  0  0  0  0  0  0  0  0
   37.5080   69.3670   26.9920 O   0  0  0  0  0  0  0  0  0  0  0  0
   37.9200   70.1980   26.8610 H   0  0  0  0  0  0  0  0  0  0  0  0
   36.5260   60.8280   33.0240 O   0  0  0  0  0  0  0  0  0  0  0  0
   36.1800   59.9910   33.2670 H   0  0  0  0  0  0  0  0  0  0  0  0
   35.8410   59.6480   28.2740 O   0  0  0  0  0  0  0  0  0  0  0  0
   35.4950   58.8130   28.5180 H   0  0  0  0  0  0  0  0  0  0  0  0
   37.6760   64.0440   25.8950 O   0  0  0  0  0  0  0  0  0  0  0  0
   37.4230   63.4890   25.1820 H   0  0  0  0  0  0  0  0  0  0  0  0
  1 22  1  0  0  0  0
  2  1  2  0  0  0  0
  3  2  1  0  0  0  0
  4  3  2  0  0  0  0
  4  5  1  0  0  0  0
  5  6  2  0  0  0  0
  6  1  1  0  0  0  0
  7  4  1  0  0  0  0
  8  7  1  0  0  0  0
  8  9  2  0  0  0  0
  9 10  1  0  0  0  0
 10  5  1  0  0  0  0
 11  7  2  0  0  0  0
 12 13  1  0  0  0  0
 12  9  1  0  0  0  0
 14 13  2  0  0  0  0
 15 14  1  0  0  0  0
 16 15  2  0  0  0  0
 16 17  1  0  0  0  0
 17 12  2  0  0  0  0
 18 19  1  0  0  0  0
 18 15  1  0  0  0  0
 20 16  1  0  0  0  0
 21 20  1  0  0  0  0
 22 23  1  0  0  0  0
 24 25  1  0  0  0  0
 24  3  1  0  0  0  0
 26  8  1  0  0  0  0
 27 26  1  0  0  0  0
M  END
>  <minimizedAffinity>
-7.60255337

$$$$
