
 OpenBabel10112400233D

 27 29  0  0  0  0  0  0  0  0999 V2000
    1.7770  -40.0560   46.0850 C   0  0  0  0  0  0  0  0  0  0  0  0
    0.9370  -39.9280   47.2990 C   0  0  0  0  0  3  0  0  0  0  0  0
   -0.2720  -40.6740   47.4190 C   0  0  0  0  0  0  0  0  0  0  0  0
   -0.6760  -41.5770   46.3130 C   0  0  0  0  0  0  0  0  0  0  0  0
    0.1090  -41.7030   45.1660 C   0  0  0  0  0  0  0  0  0  0  0  0
    1.3660  -40.9280   45.0400 C   0  0  0  0  0  3  0  0  0  0  0  0
   -1.9350  -42.4030   46.3570 C   0  0  0  0  0  0  0  0  0  0  0  0
   -2.2300  -43.2740   45.2040 C   0  0  0  0  0  0  0  0  0  0  0  0
   -1.3970  -43.2940   44.1520 C   0  0  0  0  0  0  0  0  0  0  0  0
   -0.2750  -42.5540   44.1260 O   0  0  0  0  0  0  0  0  0  0  0  0
   -2.7030  -42.3710   47.3050 O   0  0  0  0  0  0  0  0  0  0  0  0
   -1.6570  -44.1570   42.9340 C   0  0  0  0  0  0  0  0  0  0  0  0
   -1.1390  -45.5480   42.9450 C   0  0  0  0  0  3  0  0  0  0  0  0
   -1.3510  -46.4000   41.8460 C   0  0  0  0  0  3  0  0  0  0  0  0
   -2.0950  -45.9210   40.6590 C   0  0  0  0  0  0  0  0  0  0  0  0
   -2.5920  -44.5880   40.6280 C   0  0  0  0  0  0  0  0  0  0  0  0
   -2.3580  -43.6870   41.7850 C   0  0  0  0  0  3  0  0  0  0  0  0
   -2.3020  -46.7860   39.5830 O   0  0  0  0  0  0  0  0  0  0  0  0
   -1.9690  -47.6620   39.6160 H   0  0  0  0  0  0  0  0  0  0  0  0
   -3.2950  -44.1510   39.5010 O   0  0  0  0  0  0  0  0  0  0  0  0
   -3.4340  -44.7340   38.7800 H   0  0  0  0  0  0  0  0  0  0  0  0
    2.9570  -39.3140   45.9930 O   0  0  0  0  0  0  0  0  0  0  0  0
    3.2090  -38.7450   46.6940 H   0  0  0  0  0  0  0  0  0  0  0  0
   -1.0780  -40.5680   48.5550 O   0  0  0  0  0  0  0  0  0  0  0  0
   -0.8270  -39.9990   49.2560 H   0  0  0  0  0  0  0  0  0  0  0  0
   -3.3200  -44.0550   45.2140 O   0  0  0  0  0  0  0  0  0  0  0  0
   -3.9020  -44.0390   45.9490 H   0  0  0  0  0  0  0  0  0  0  0  0
  1  2  1  0  0  0  0
  2  3  2  0  0  0  0
  3 24  1  0  0  0  0
  4  7  1  0  0  0  0
  4  3  1  0  0  0  0
  5  4  2  0  0  0  0
  6  5  1  0  0  0  0
  6  1  2  0  0  0  0
  7 11  2  0  0  0  0
  8 26  1  0  0  0  0
  8  7  1  0  0  0  0
  9  8  2  0  0  0  0
 10  9  1  0  0  0  0
 10  5  1  0  0  0  0
 12 13  1  0  0  0  0
 12  9  1  0  0  0  0
 14 13  2  0  0  0  0
 15 14  1  0  0  0  0
 16 15  2  0  0  0  0
 16 17  1  0  0  0  0
 17 12  2  0  0  0  0
 18 19  1  0  0  0  0
 18 15  1  0  0  0  0
 20 16  1  0  0  0  0
 21 20  1  0  0  0  0
 22  1  1  0  0  0  0
 22 23  1  0  0  0  0
 24 25  1  0  0  0  0
 26 27  1  0  0  0  0
M  END
>  <minimizedAffinity>
-9.66025925

$$$$

 OpenBabel10112400233D

 27 29  0  0  0  0  0  0  0  0999 V2000
   -1.3890  -47.0500   42.2160 C   0  0  0  0  0  0  0  0  0  0  0  0
   -2.8190  -46.7500   41.9720 C   0  0  0  0  0  3  0  0  0  0  0  0
   -3.3730  -45.5030   42.3840 C   0  0  0  0  0  0  0  0  0  0  0  0
   -2.4990  -44.5120   43.0590 C   0  0  0  0  0  0  0  0  0  0  0  0
   -1.1510  -44.7870   43.2940 C   0  0  0  0  0  0  0  0  0  0  0  0
   -0.5740  -46.0830   42.8670 C   0  0  0  0  0  3  0  0  0  0  0  0
   -3.0000  -43.1700   43.5260 C   0  0  0  0  0  0  0  0  0  0  0  0
   -2.0380  -42.2610   44.1760 C   0  0  0  0  0  0  0  0  0  0  0  0
   -0.7670  -42.6520   44.3550 C   0  0  0  0  0  0  0  0  0  0  0  0
   -0.3310  -43.8520   43.9320 O   0  0  0  0  0  0  0  0  0  0  0  0
   -4.1610  -42.8210   43.3810 O   0  0  0  0  0  0  0  0  0  0  0  0
    0.2620  -41.7680   45.0300 C   0  0  0  0  0  0  0  0  0  0  0  0
    1.1050  -40.9000   44.1700 C   0  0  0  0  0  3  0  0  0  0  0  0
    2.0750  -40.0540   44.7370 C   0  0  0  0  0  3  0  0  0  0  0  0
    2.2680  -40.0150   46.2040 C   0  0  0  0  0  0  0  0  0  0  0  0
    1.4740  -40.8440   47.0440 C   0  0  0  0  0  0  0  0  0  0  0  0
    0.4590  -41.7450   46.4420 C   0  0  0  0  0  3  0  0  0  0  0  0
    3.2310  -39.1600   46.7470 O   0  0  0  0  0  0  0  0  0  0  0  0
    3.7470  -38.6190   46.1820 H   0  0  0  0  0  0  0  0  0  0  0  0
    1.6680  -40.7950   48.4280 O   0  0  0  0  0  0  0  0  0  0  0  0
    2.3140  -40.2200   48.7900 H   0  0  0  0  0  0  0  0  0  0  0  0
   -0.8710  -48.2800   41.8030 O   0  0  0  0  0  0  0  0  0  0  0  0
   -1.4260  -48.9020   41.3760 H   0  0  0  0  0  0  0  0  0  0  0  0
   -4.7190  -45.2000   42.1620 O   0  0  0  0  0  0  0  0  0  0  0  0
   -5.2750  -45.8230   41.7360 H   0  0  0  0  0  0  0  0  0  0  0  0
   -2.4300  -41.0420   44.5740 O   0  0  0  0  0  0  0  0  0  0  0  0
   -3.3190  -40.7710   44.4500 H   0  0  0  0  0  0  0  0  0  0  0  0
  1  6  1  0  0  0  0
  2  1  2  0  0  0  0
  2  3  1  0  0  0  0
  3  4  2  0  0  0  0
  4  5  1  0  0  0  0
  4  7  1  0  0  0  0
  5 10  1  0  0  0  0
  6  5  2  0  0  0  0
  7  8  1  0  0  0  0
  8  9  2  0  0  0  0
  8 26  1  0  0  0  0
  9 12  1  0  0  0  0
 10  9  1  0  0  0  0
 11  7  2  0  0  0  0
 12 17  1  0  0  0  0
 13 14  1  0  0  0  0
 13 12  2  0  0  0  0
 14 15  2  0  0  0  0
 15 18  1  0  0  0  0
 15 16  1  0  0  0  0
 16 20  1  0  0  0  0
 17 16  2  0  0  0  0
 19 18  1  0  0  0  0
 20 21  1  0  0  0  0
 22  1  1  0  0  0  0
 23 22  1  0  0  0  0
 24  3  1  0  0  0  0
 25 24  1  0  0  0  0
 27 26  1  0  0  0  0
M  END
>  <minimizedAffinity>
-9.52553177

$$$$

 OpenBabel10112400233D

 27 29  0  0  0  0  0  0  0  0999 V2000
    0.1660  -35.4400   21.8700 C   0  0  0  0  0  0  0  0  0  0  0  0
   -1.1430  -35.1810   22.5140 C   0  0  0  0  0  3  0  0  0  0  0  0
   -1.7950  -36.2070   23.2570 C   0  0  0  0  0  0  0  0  0  0  0  0
   -1.1450  -37.5360   23.3770 C   0  0  0  0  0  0  0  0  0  0  0  0
    0.0870  -37.7890   22.7730 C   0  0  0  0  0  0  0  0  0  0  0  0
    0.7650  -36.7230   21.9990 C   0  0  0  0  0  3  0  0  0  0  0  0
   -1.7620  -38.6760   24.1440 C   0  0  0  0  0  0  0  0  0  0  0  0
   -1.0210  -39.9500   24.2040 C   0  0  0  0  0  0  0  0  0  0  0  0
    0.1540  -40.0690   23.5660 C   0  0  0  0  0  0  0  0  0  0  0  0
    0.6950  -39.0420   22.8860 O   0  0  0  0  0  0  0  0  0  0  0  0
   -2.8390  -38.5750   24.7090 O   0  0  0  0  0  0  0  0  0  0  0  0
    0.9530  -41.3560   23.5800 C   0  0  0  0  0  0  0  0  0  0  0  0
    0.8150  -42.2730   22.4210 C   0  0  0  0  0  3  0  0  0  0  0  0
    1.5330  -43.4810   22.3740 C   0  0  0  0  0  3  0  0  0  0  0  0
    2.4400  -43.8570   23.4810 C   0  0  0  0  0  0  0  0  0  0  0  0
    2.5800  -42.9940   24.6040 C   0  0  0  0  0  0  0  0  0  0  0  0
    1.8120  -41.7240   24.6570 C   0  0  0  0  0  3  0  0  0  0  0  0
    3.1510  -45.0570   23.4090 O   0  0  0  0  0  0  0  0  0  0  0  0
    3.0500  -45.6170   22.6640 H   0  0  0  0  0  0  0  0  0  0  0  0
    3.4420  -43.3620   25.6410 O   0  0  0  0  0  0  0  0  0  0  0  0
    3.9190  -44.1680   25.5910 H   0  0  0  0  0  0  0  0  0  0  0  0
    0.7830  -34.4160   21.1460 O   0  0  0  0  0  0  0  0  0  0  0  0
    0.3700  -33.5790   21.0740 H   0  0  0  0  0  0  0  0  0  0  0  0
   -3.0300  -35.9830   23.8720 O   0  0  0  0  0  0  0  0  0  0  0  0
   -3.4430  -35.1450   23.7990 H   0  0  0  0  0  0  0  0  0  0  0  0
   -1.5130  -40.9800   24.9070 O   0  0  0  0  0  0  0  0  0  0  0  0
   -2.3340  -40.8960   25.3510 H   0  0  0  0  0  0  0  0  0  0  0  0
  1  6  2  0  0  0  0
  1  2  1  0  0  0  0
  2  3  2  0  0  0  0
  3  4  1  0  0  0  0
  3 24  1  0  0  0  0
  4  7  1  0  0  0  0
  5 10  1  0  0  0  0
  5  4  2  0  0  0  0
  6  5  1  0  0  0  0
  7  8  1  0  0  0  0
  7 11  2  0  0  0  0
  8 26  1  0  0  0  0
  9 12  1  0  0  0  0
  9  8  2  0  0  0  0
 10  9  1  0  0  0  0
 12 17  1  0  0  0  0
 13 12  2  0  0  0  0
 14 13  1  0  0  0  0
 14 15  2  0  0  0  0
 15 16  1  0  0  0  0
 16 17  2  0  0  0  0
 16 20  1  0  0  0  0
 18 15  1  0  0  0  0
 19 18  1  0  0  0  0
 21 20  1  0  0  0  0
 22  1  1  0  0  0  0
 23 22  1  0  0  0  0
 25 24  1  0  0  0  0
 26 27  1  0  0  0  0
M  END
>  <minimizedAffinity>
-9.1762228

$$$$

 OpenBabel10112400233D

 27 29  0  0  0  0  0  0  0  0999 V2000
   11.2510  -41.5410   17.0240 C   0  0  0  0  0  0  0  0  0  0  0  0
   11.9250  -41.2470   15.7380 C   0  0  0  0  0  3  0  0  0  0  0  0
   13.3210  -40.9640   15.7040 C   0  0  0  0  0  0  0  0  0  0  0  0
   14.0890  -40.9690   16.9730 C   0  0  0  0  0  0  0  0  0  0  0  0
   13.4630  -41.2440   18.1900 C   0  0  0  0  0  0  0  0  0  0  0  0
   12.0120  -41.5370   18.2260 C   0  0  0  0  0  3  0  0  0  0  0  0
   15.5680  -40.6830   17.0310 C   0  0  0  0  0  0  0  0  0  0  0  0
   16.2290  -40.7260   18.3480 C   0  0  0  0  0  0  0  0  0  0  0  0
   15.5080  -40.9910   19.4490 C   0  0  0  0  0  0  0  0  0  0  0  0
   14.1890  -41.2460   19.3840 O   0  0  0  0  0  0  0  0  0  0  0  0
   16.2200  -40.4240   16.0330 O   0  0  0  0  0  0  0  0  0  0  0  0
   16.1310  -41.0330   20.8300 C   0  0  0  0  0  0  0  0  0  0  0  0
   16.8410  -42.2720   21.2350 C   0  0  0  0  0  3  0  0  0  0  0  0
   17.4420  -42.3710   22.5020 C   0  0  0  0  0  3  0  0  0  0  0  0
   17.3770  -41.2380   23.4530 C   0  0  0  0  0  0  0  0  0  0  0  0
   16.6940  -40.0450   23.0840 C   0  0  0  0  0  0  0  0  0  0  0  0
   16.0500  -39.9470   21.7500 C   0  0  0  0  0  3  0  0  0  0  0  0
   17.9890  -41.3540   24.7030 O   0  0  0  0  0  0  0  0  0  0  0  0
   18.4360  -42.1460   24.9330 H   0  0  0  0  0  0  0  0  0  0  0  0
   16.6420  -38.9830   23.9930 O   0  0  0  0  0  0  0  0  0  0  0  0
   17.0550  -39.0630   24.8310 H   0  0  0  0  0  0  0  0  0  0  0  0
    9.8810  -41.8140   17.0290 O   0  0  0  0  0  0  0  0  0  0  0  0
    9.4000  -41.8110   16.2240 H   0  0  0  0  0  0  0  0  0  0  0  0
   13.9750  -40.6850   14.5010 O   0  0  0  0  0  0  0  0  0  0  0  0
   13.4940  -40.6810   13.6970 H   0  0  0  0  0  0  0  0  0  0  0  0
   17.5500  -40.5150   18.4430 O   0  0  0  0  0  0  0  0  0  0  0  0
   18.0520  -40.3300   17.6730 H   0  0  0  0  0  0  0  0  0  0  0  0
  1 22  1  0  0  0  0
  1  6  1  0  0  0  0
  2  1  2  0  0  0  0
  3  2  1  0  0  0  0
  3  4  2  0  0  0  0
  4  7  1  0  0  0  0
  4  5  1  0  0  0  0
  5  6  2  0  0  0  0
  5 10  1  0  0  0  0
  7  8  1  0  0  0  0
  8 26  1  0  0  0  0
  8  9  2  0  0  0  0
  9 12  1  0  0  0  0
 10  9  1  0  0  0  0
 11  7  2  0  0  0  0
 12 13  2  0  0  0  0
 12 17  1  0  0  0  0
 13 14  1  0  0  0  0
 14 15  2  0  0  0  0
 15 18  1  0  0  0  0
 16 15  1  0  0  0  0
 16 20  1  0  0  0  0
 17 16  2  0  0  0  0
 18 19  1  0  0  0  0
 20 21  1  0  0  0  0
 23 22  1  0  0  0  0
 24  3  1  0  0  0  0
 25 24  1  0  0  0  0
 27 26  1  0  0  0  0
M  END
>  <minimizedAffinity>
-9.14461422

$$$$

 OpenBabel10112400233D

 27 29  0  0  0  0  0  0  0  0999 V2000
    0.5550  -45.6460   43.5810 C   0  0  0  0  0  0  0  0  0  0  0  0
   -0.7550  -45.7090   42.8930 C   0  0  0  0  0  3  0  0  0  0  0  0
   -1.7680  -44.7490   43.1830 C   0  0  0  0  0  0  0  0  0  0  0  0
   -1.4910  -43.6860   44.1800 C   0  0  0  0  0  0  0  0  0  0  0  0
   -0.2590  -43.6190   44.8340 C   0  0  0  0  0  0  0  0  0  0  0  0
    0.7930  -44.6170   44.5350 C   0  0  0  0  0  3  0  0  0  0  0  0
   -2.5010  -42.6300   44.5460 C   0  0  0  0  0  0  0  0  0  0  0  0
   -2.1110  -41.6160   45.5440 C   0  0  0  0  0  0  0  0  0  0  0  0
   -0.8960  -41.6700   46.1100 C   0  0  0  0  0  0  0  0  0  0  0  0
   -0.0020  -42.6170   45.7740 O   0  0  0  0  0  0  0  0  0  0  0  0
   -3.6130  -42.5910   44.0450 O   0  0  0  0  0  0  0  0  0  0  0  0
   -0.4460  -40.6660   47.1520 C   0  0  0  0  0  0  0  0  0  0  0  0
   -1.0230  -40.7730   48.5150 C   0  0  0  0  0  3  0  0  0  0  0  0
   -0.6420  -39.8720   49.5270 C   0  0  0  0  0  3  0  0  0  0  0  0
    0.3420  -38.8030   49.2460 C   0  0  0  0  0  0  0  0  0  0  0  0
    0.9000  -38.6810   47.9430 C   0  0  0  0  0  0  0  0  0  0  0  0
    0.4880  -39.6260   46.8740 C   0  0  0  0  0  3  0  0  0  0  0  0
    0.7130  -37.9260   50.2670 O   0  0  0  0  0  0  0  0  0  0  0  0
    0.3380  -38.0170   51.1210 H   0  0  0  0  0  0  0  0  0  0  0  0
    1.8300  -37.6670   47.6930 O   0  0  0  0  0  0  0  0  0  0  0  0
    2.0780  -37.0800   48.3800 H   0  0  0  0  0  0  0  0  0  0  0  0
    1.5300  -46.6000   43.2800 O   0  0  0  0  0  0  0  0  0  0  0  0
    1.3500  -47.2690   42.6480 H   0  0  0  0  0  0  0  0  0  0  0  0
   -3.0100  -44.7910   42.5450 O   0  0  0  0  0  0  0  0  0  0  0  0
   -3.1890  -45.4610   41.9140 H   0  0  0  0  0  0  0  0  0  0  0  0
   -2.9640  -40.6350   45.8720 O   0  0  0  0  0  0  0  0  0  0  0  0
   -3.8130  -40.5990   45.4760 H   0  0  0  0  0  0  0  0  0  0  0  0
  1  6  1  0  0  0  0
  2  3  1  0  0  0  0
  2  1  2  0  0  0  0
  3  4  2  0  0  0  0
  4  7  1  0  0  0  0
  4  5  1  0  0  0  0
  5 10  1  0  0  0  0
  6  5  2  0  0  0  0
  7  8  1  0  0  0  0
  8 26  1  0  0  0  0
  8  9  2  0  0  0  0
  9 12  1  0  0  0  0
 10  9  1  0  0  0  0
 11  7  2  0  0  0  0
 12 13  1  0  0  0  0
 13 14  2  0  0  0  0
 15 14  1  0  0  0  0
 15 18  1  0  0  0  0
 16 15  2  0  0  0  0
 17 12  2  0  0  0  0
 17 16  1  0  0  0  0
 18 19  1  0  0  0  0
 20 16  1  0  0  0  0
 20 21  1  0  0  0  0
 22  1  1  0  0  0  0
 23 22  1  0  0  0  0
 24  3  1  0  0  0  0
 25 24  1  0  0  0  0
 27 26  1  0  0  0  0
M  END
>  <minimizedAffinity>
-9.06872845

$$$$

 OpenBabel10112400233D

 27 29  0  0  0  0  0  0  0  0999 V2000
   15.8830  -39.1880   18.2100 C   0  0  0  0  0  0  0  0  0  0  0  0
   14.8250  -40.1390   17.7970 C   0  0  0  0  0  3  0  0  0  0  0  0
   14.6740  -41.3860   18.4710 C   0  0  0  0  0  0  0  0  0  0  0  0
   15.5910  -41.7180   19.5890 C   0  0  0  0  0  0  0  0  0  0  0  0
   16.5910  -40.8280   19.9850 C   0  0  0  0  0  0  0  0  0  0  0  0
   16.7490  -39.5320   19.2850 C   0  0  0  0  0  3  0  0  0  0  0  0
   15.5030  -43.0110   20.3570 C   0  0  0  0  0  0  0  0  0  0  0  0
   16.4610  -43.2280   21.4570 C   0  0  0  0  0  0  0  0  0  0  0  0
   17.3870  -42.2960   21.7290 C   0  0  0  0  0  0  0  0  0  0  0  0
   17.4540  -41.1440   21.0380 O   0  0  0  0  0  0  0  0  0  0  0  0
   14.6730  -43.8680   20.0980 O   0  0  0  0  0  0  0  0  0  0  0  0
   18.4060  -42.4710   22.8370 C   0  0  0  0  0  0  0  0  0  0  0  0
   18.1510  -41.7890   24.1300 C   0  0  0  0  0  3  0  0  0  0  0  0
   19.0580  -41.9160   25.1980 C   0  0  0  0  0  3  0  0  0  0  0  0
   20.2830  -42.7340   25.0470 C   0  0  0  0  0  0  0  0  0  0  0  0
   20.5470  -43.3890   23.8130 C   0  0  0  0  0  0  0  0  0  0  0  0
   19.5940  -43.2440   22.6830 C   0  0  0  0  0  3  0  0  0  0  0  0
   21.1640  -42.8540   26.1240 O   0  0  0  0  0  0  0  0  0  0  0  0
   20.9790  -42.4170   26.9320 H   0  0  0  0  0  0  0  0  0  0  0  0
   21.7070  -44.1590   23.6870 O   0  0  0  0  0  0  0  0  0  0  0  0
   22.2970  -44.2400   24.4110 H   0  0  0  0  0  0  0  0  0  0  0  0
   16.0080  -37.9730   17.5330 O   0  0  0  0  0  0  0  0  0  0  0  0
   15.4270  -37.7670   16.8280 H   0  0  0  0  0  0  0  0  0  0  0  0
   13.6820  -42.2960   18.0960 O   0  0  0  0  0  0  0  0  0  0  0  0
   13.1020  -42.0910   17.3900 H   0  0  0  0  0  0  0  0  0  0  0  0
   16.3970  -44.3480   22.1920 O   0  0  0  0  0  0  0  0  0  0  0  0
   15.7500  -44.9990   22.0000 H   0  0  0  0  0  0  0  0  0  0  0  0
  1  6  1  0  0  0  0
  2  1  2  0  0  0  0
  2  3  1  0  0  0  0
  3  4  2  0  0  0  0
  4  5  1  0  0  0  0
  4  7  1  0  0  0  0
  5 10  1  0  0  0  0
  6  5  2  0  0  0  0
  7  8  1  0  0  0  0
  8  9  2  0  0  0  0
  8 26  1  0  0  0  0
  9 12  1  0  0  0  0
 10  9  1  0  0  0  0
 11  7  2  0  0  0  0
 12 13  1  0  0  0  0
 13 14  2  0  0  0  0
 15 14  1  0  0  0  0
 15 18  1  0  0  0  0
 16 15  2  0  0  0  0
 17 12  2  0  0  0  0
 17 16  1  0  0  0  0
 18 19  1  0  0  0  0
 20 16  1  0  0  0  0
 20 21  1  0  0  0  0
 22  1  1  0  0  0  0
 23 22  1  0  0  0  0
 24  3  1  0  0  0  0
 25 24  1  0  0  0  0
 27 26  1  0  0  0  0
M  END
>  <minimizedAffinity>
-8.96947765

$$$$

 OpenBabel10112400233D

 27 29  0  0  0  0  0  0  0  0999 V2000
    0.6160  -45.9410   43.4030 C   0  0  0  0  0  0  0  0  0  0  0  0
   -0.8150  -45.8910   43.0220 C   0  0  0  0  0  3  0  0  0  0  0  0
   -1.6730  -44.8960   43.5740 C   0  0  0  0  0  0  0  0  0  0  0  0
   -1.1130  -43.9120   44.5330 C   0  0  0  0  0  0  0  0  0  0  0  0
    0.2330  -43.9510   44.8990 C   0  0  0  0  0  0  0  0  0  0  0  0
    1.1260  -44.9860   44.3260 C   0  0  0  0  0  3  0  0  0  0  0  0
   -1.9460  -42.8260   45.1640 C   0  0  0  0  0  0  0  0  0  0  0  0
   -1.2800  -41.8970   46.0960 C   0  0  0  0  0  0  0  0  0  0  0  0
    0.0230  -42.0520   46.3740 C   0  0  0  0  0  0  0  0  0  0  0  0
    0.7570  -43.0240   45.8040 O   0  0  0  0  0  0  0  0  0  0  0  0
   -3.1360  -42.6960   44.9250 O   0  0  0  0  0  0  0  0  0  0  0  0
    0.7570  -41.1380   47.3350 C   0  0  0  0  0  0  0  0  0  0  0  0
    1.8710  -40.3160   46.7990 C   0  0  0  0  0  3  0  0  0  0  0  0
    2.5880  -39.4460   47.6400 C   0  0  0  0  0  3  0  0  0  0  0  0
    2.2400  -39.3350   49.0750 C   0  0  0  0  0  0  0  0  0  0  0  0
    1.1790  -40.1200   49.6070 C   0  0  0  0  0  0  0  0  0  0  0  0
    0.4320  -41.0470   48.7200 C   0  0  0  0  0  3  0  0  0  0  0  0
    2.9580  -38.4580   49.8900 O   0  0  0  0  0  0  0  0  0  0  0  0
    3.6550  -37.9460   49.5270 H   0  0  0  0  0  0  0  0  0  0  0  0
    0.8620  -40.0030   50.9640 O   0  0  0  0  0  0  0  0  0  0  0  0
    1.3450  -39.4130   51.5090 H   0  0  0  0  0  0  0  0  0  0  0  0
    1.4350  -46.9270   42.8480 O   0  0  0  0  0  0  0  0  0  0  0  0
    1.0780  -47.5460   42.2420 H   0  0  0  0  0  0  0  0  0  0  0  0
   -3.0250  -44.8320   43.2280 O   0  0  0  0  0  0  0  0  0  0  0  0
   -3.3820  -45.4520   42.6230 H   0  0  0  0  0  0  0  0  0  0  0  0
   -1.9730  -40.8930   46.6510 O   0  0  0  0  0  0  0  0  0  0  0  0
   -2.8840  -40.7860   46.4560 H   0  0  0  0  0  0  0  0  0  0  0  0
  1  6  1  0  0  0  0
  2  1  2  0  0  0  0
  2  3  1  0  0  0  0
  3  4  2  0  0  0  0
  4  5  1  0  0  0  0
  4  7  1  0  0  0  0
  5 10  1  0  0  0  0
  6  5  2  0  0  0  0
  7  8  1  0  0  0  0
  8  9  2  0  0  0  0
  8 26  1  0  0  0  0
  9 12  1  0  0  0  0
 10  9  1  0  0  0  0
 11  7  2  0  0  0  0
 12 17  1  0  0  0  0
 13 12  2  0  0  0  0
 13 14  1  0  0  0  0
 14 15  2  0  0  0  0
 15 16  1  0  0  0  0
 15 18  1  0  0  0  0
 16 20  1  0  0  0  0
 17 16  2  0  0  0  0
 19 18  1  0  0  0  0
 20 21  1  0  0  0  0
 22  1  1  0  0  0  0
 23 22  1  0  0  0  0
 24  3  1  0  0  0  0
 25 24  1  0  0  0  0
 27 26  1  0  0  0  0
M  END
>  <minimizedAffinity>
-8.7137289

$$$$

 OpenBabel10112400233D

 27 29  0  0  0  0  0  0  0  0999 V2000
   15.4630  -43.8330   20.7230 C   0  0  0  0  0  0  0  0  0  0  0  0
   16.5230  -42.8880   21.1450 C   0  0  0  0  0  3  0  0  0  0  0  0
   16.7700  -41.7010   20.3960 C   0  0  0  0  0  0  0  0  0  0  0  0
   15.9500  -41.4250   19.1900 C   0  0  0  0  0  0  0  0  0  0  0  0
   14.9500  -42.3100   18.7850 C   0  0  0  0  0  0  0  0  0  0  0  0
   14.6930  -43.5450   19.5620 C   0  0  0  0  0  3  0  0  0  0  0  0
   16.1400  -40.1950   18.3410 C   0  0  0  0  0  0  0  0  0  0  0  0
   15.2610  -40.0200   17.1710 C   0  0  0  0  0  0  0  0  0  0  0  0
   14.3430  -40.9550   16.8800 C   0  0  0  0  0  0  0  0  0  0  0  0
   14.1810  -42.0480   17.6470 O   0  0  0  0  0  0  0  0  0  0  0  0
   16.9880  -39.3540   18.5930 O   0  0  0  0  0  0  0  0  0  0  0  0
   13.4220  -40.8370   15.6830 C   0  0  0  0  0  0  0  0  0  0  0  0
   13.9810  -41.1440   14.3430 C   0  0  0  0  0  3  0  0  0  0  0  0
   13.1750  -41.0560   13.1930 C   0  0  0  0  0  3  0  0  0  0  0  0
   11.7540  -40.6560   13.3030 C   0  0  0  0  0  0  0  0  0  0  0  0
   11.2030  -40.3510   14.5790 C   0  0  0  0  0  0  0  0  0  0  0  0
   12.0580  -40.4340   15.7900 C   0  0  0  0  0  3  0  0  0  0  0  0
   10.9700  -40.5850   12.1500 O   0  0  0  0  0  0  0  0  0  0  0  0
   11.3450  -40.7880   11.3150 H   0  0  0  0  0  0  0  0  0  0  0  0
    9.8580  -39.9760   14.6670 O   0  0  0  0  0  0  0  0  0  0  0  0
    9.3330  -39.9300   13.8920 H   0  0  0  0  0  0  0  0  0  0  0  0
   15.2430  -44.9890   21.4750 O   0  0  0  0  0  0  0  0  0  0  0  0
   15.7620  -45.1590   22.2370 H   0  0  0  0  0  0  0  0  0  0  0  0
   17.7650  -40.7970   20.7780 O   0  0  0  0  0  0  0  0  0  0  0  0
   18.2840  -40.9670   21.5380 H   0  0  0  0  0  0  0  0  0  0  0  0
   15.3690  -38.9230   16.4080 O   0  0  0  0  0  0  0  0  0  0  0  0
   16.0110  -38.2720   16.6110 H   0  0  0  0  0  0  0  0  0  0  0  0
  1  2  1  0  0  0  0
  1 22  1  0  0  0  0
  3 24  1  0  0  0  0
  3  2  2  0  0  0  0
  4  3  1  0  0  0  0
  5  4  2  0  0  0  0
  5  6  1  0  0  0  0
  6  1  2  0  0  0  0
  7 11  2  0  0  0  0
  7  4  1  0  0  0  0
  8  7  1  0  0  0  0
  9  8  2  0  0  0  0
  9 10  1  0  0  0  0
 10  5  1  0  0  0  0
 12 17  1  0  0  0  0
 12  9  1  0  0  0  0
 13 12  2  0  0  0  0
 14 15  2  0  0  0  0
 14 13  1  0  0  0  0
 15 16  1  0  0  0  0
 16 20  1  0  0  0  0
 16 17  2  0  0  0  0
 18 15  1  0  0  0  0
 19 18  1  0  0  0  0
 21 20  1  0  0  0  0
 22 23  1  0  0  0  0
 24 25  1  0  0  0  0
 26 27  1  0  0  0  0
 26  8  1  0  0  0  0
M  END
>  <minimizedAffinity>
-8.59366894

$$$$

 OpenBabel10112400233D

 27 29  0  0  0  0  0  0  0  0999 V2000
   11.8680  -42.2260   12.1650 C   0  0  0  0  0  0  0  0  0  0  0  0
   10.5770  -42.6140   12.7790 C   0  0  0  0  0  3  0  0  0  0  0  0
   10.3840  -42.4920   14.1870 C   0  0  0  0  0  0  0  0  0  0  0  0
   11.4930  -41.9730   15.0250 C   0  0  0  0  0  0  0  0  0  0  0  0
   12.7130  -41.6070   14.4550 C   0  0  0  0  0  0  0  0  0  0  0  0
   12.9150  -41.7330   12.9930 C   0  0  0  0  0  3  0  0  0  0  0  0
   11.3760  -41.8100   16.5180 C   0  0  0  0  0  0  0  0  0  0  0  0
   12.5400  -41.2750   17.2480 C   0  0  0  0  0  0  0  0  0  0  0  0
   13.6640  -40.9720   16.5810 C   0  0  0  0  0  0  0  0  0  0  0  0
   13.7560  -41.1200   15.2480 O   0  0  0  0  0  0  0  0  0  0  0  0
   10.3600  -42.1040   17.1280 O   0  0  0  0  0  0  0  0  0  0  0  0
   14.8960  -40.4330   17.2800 C   0  0  0  0  0  0  0  0  0  0  0  0
   15.5260  -41.2760   18.3270 C   0  0  0  0  0  3  0  0  0  0  0  0
   16.6740  -40.8320   19.0080 C   0  0  0  0  0  3  0  0  0  0  0  0
   17.2720  -39.5160   18.6900 C   0  0  0  0  0  0  0  0  0  0  0  0
   16.6770  -38.6920   17.6950 C   0  0  0  0  0  0  0  0  0  0  0  0
   15.4590  -39.1570   16.9850 C   0  0  0  0  0  3  0  0  0  0  0  0
   18.4170  -39.1000   19.3730 O   0  0  0  0  0  0  0  0  0  0  0  0
   18.8000  -39.6520   20.0270 H   0  0  0  0  0  0  0  0  0  0  0  0
   17.2550  -37.4520   17.4050 O   0  0  0  0  0  0  0  0  0  0  0  0
   18.0240  -37.1740   17.8630 H   0  0  0  0  0  0  0  0  0  0  0  0
   12.0310  -42.3550   10.7840 O   0  0  0  0  0  0  0  0  0  0  0  0
   11.3280  -42.6830   10.2580 H   0  0  0  0  0  0  0  0  0  0  0  0
    9.1740  -42.8520   14.7850 O   0  0  0  0  0  0  0  0  0  0  0  0
    8.4710  -43.1800   14.2590 H   0  0  0  0  0  0  0  0  0  0  0  0
   12.4690  -41.0780   18.5730 O   0  0  0  0  0  0  0  0  0  0  0  0
   11.6830  -41.2910   19.0370 H   0  0  0  0  0  0  0  0  0  0  0  0
  1  2  2  0  0  0  0
  1  6  1  0  0  0  0
  2  3  1  0  0  0  0
  3 24  1  0  0  0  0
  3  4  2  0  0  0  0
  4  7  1  0  0  0  0
  5  4  1  0  0  0  0
  5 10  1  0  0  0  0
  6  5  2  0  0  0  0
  7 11  2  0  0  0  0
  7  8  1  0  0  0  0
  8 26  1  0  0  0  0
  9  8  2  0  0  0  0
  9 12  1  0  0  0  0
 10  9  1  0  0  0  0
 12 13  1  0  0  0  0
 13 14  2  0  0  0  0
 15 14  1  0  0  0  0
 15 18  1  0  0  0  0
 16 15  2  0  0  0  0
 17 12  2  0  0  0  0
 17 16  1  0  0  0  0
 18 19  1  0  0  0  0
 20 16  1  0  0  0  0
 20 21  1  0  0  0  0
 22  1  1  0  0  0  0
 23 22  1  0  0  0  0
 25 24  1  0  0  0  0
 26 27  1  0  0  0  0
M  END
>  <minimizedAffinity>
-8.59044933

$$$$
