
 OpenBabel10112400233D

 27 29  0  0  0  0  0  0  0  0999 V2000
  -21.9020  -47.3350   36.1900 C   0  0  0  0  0  0  0  0  0  0  0  0
  -20.8970  -48.0370   37.0220 C   0  0  0  0  0  3  0  0  0  0  0  0
  -19.9110  -48.8660   36.4130 C   0  0  0  0  0  0  0  0  0  0  0  0
  -19.9050  -49.0160   34.9370 C   0  0  0  0  0  0  0  0  0  0  0  0
  -20.8480  -48.3590   34.1450 C   0  0  0  0  0  0  0  0  0  0  0  0
  -21.8750  -47.4980   34.7770 C   0  0  0  0  0  3  0  0  0  0  0  0
  -18.8990  -49.8700   34.2100 C   0  0  0  0  0  0  0  0  0  0  0  0
  -18.9830  -49.9360   32.7390 C   0  0  0  0  0  0  0  0  0  0  0  0
  -19.9500  -49.2650   32.0950 C   0  0  0  0  0  0  0  0  0  0  0  0
  -20.8410  -48.5040   32.7550 O   0  0  0  0  0  0  0  0  0  0  0  0
  -18.0300  -50.4960   34.7960 O   0  0  0  0  0  0  0  0  0  0  0  0
  -20.0950  -49.3080   30.5870 C   0  0  0  0  0  0  0  0  0  0  0  0
  -21.0830  -50.2530   30.0100 C   0  0  0  0  0  3  0  0  0  0  0  0
  -21.2660  -50.3360   28.6180 C   0  0  0  0  0  3  0  0  0  0  0  0
  -20.4750  -49.4800   27.7060 C   0  0  0  0  0  0  0  0  0  0  0  0
  -19.5180  -48.5730   28.2410 C   0  0  0  0  0  0  0  0  0  0  0  0
  -19.3180  -48.4950   29.7100 C   0  0  0  0  0  3  0  0  0  0  0  0
  -20.6790  -49.5720   26.3270 O   0  0  0  0  0  0  0  0  0  0  0  0
  -21.3130  -50.1740   25.9870 H   0  0  0  0  0  0  0  0  0  0  0  0
  -18.7790  -47.7700   27.3660 O   0  0  0  0  0  0  0  0  0  0  0  0
  -18.9190  -47.8320   26.4420 H   0  0  0  0  0  0  0  0  0  0  0  0
  -22.8580  -46.5290   36.8120 O   0  0  0  0  0  0  0  0  0  0  0  0
  -22.8580  -46.4360   37.7450 H   0  0  0  0  0  0  0  0  0  0  0  0
  -18.9540  -49.5360   37.1800 O   0  0  0  0  0  0  0  0  0  0  0  0
  -18.9540  -49.4440   38.1120 H   0  0  0  0  0  0  0  0  0  0  0  0
  -18.0860  -50.6530   32.0470 O   0  0  0  0  0  0  0  0  0  0  0  0
  -17.4110  -51.1220   32.4990 H   0  0  0  0  0  0  0  0  0  0  0  0
  1 22  1  0  0  0  0
  1  2  1  0  0  0  0
  3  2  2  0  0  0  0
  3 24  1  0  0  0  0
  4  3  1  0  0  0  0
  5  6  1  0  0  0  0
  5  4  2  0  0  0  0
  6  1  2  0  0  0  0
  7 11  2  0  0  0  0
  7  4  1  0  0  0  0
  8  7  1  0  0  0  0
  9  8  2  0  0  0  0
  9 10  1  0  0  0  0
 10  5  1  0  0  0  0
 12  9  1  0  0  0  0
 13 12  1  0  0  0  0
 14 13  2  0  0  0  0
 15 16  2  0  0  0  0
 15 14  1  0  0  0  0
 16 17  1  0  0  0  0
 17 12  2  0  0  0  0
 18 15  1  0  0  0  0
 19 18  1  0  0  0  0
 20 16  1  0  0  0  0
 21 20  1  0  0  0  0
 22 23  1  0  0  0  0
 24 25  1  0  0  0  0
 26 27  1  0  0  0  0
 26  8  1  0  0  0  0
M  END
>  <minimizedAffinity>
-5.45265436

$$$$

 OpenBabel10112400233D

 27 29  0  0  0  0  0  0  0  0999 V2000
  -19.0760  -48.9140   27.8280 C   0  0  0  0  0  0  0  0  0  0  0  0
  -20.1310  -49.7840   27.2590 C   0  0  0  0  0  3  0  0  0  0  0  0
  -21.1820  -50.2770   28.0870 C   0  0  0  0  0  0  0  0  0  0  0  0
  -21.2040  -49.9070   29.5230 C   0  0  0  0  0  0  0  0  0  0  0  0
  -20.2130  -49.0880   30.0680 C   0  0  0  0  0  0  0  0  0  0  0  0
  -19.1210  -48.5760   29.2090 C   0  0  0  0  0  3  0  0  0  0  0  0
  -22.2760  -50.3800   30.4690 C   0  0  0  0  0  0  0  0  0  0  0  0
  -22.2020  -49.9400   31.8750 C   0  0  0  0  0  0  0  0  0  0  0  0
  -21.1860  -49.1600   32.2770 C   0  0  0  0  0  0  0  0  0  0  0  0
  -20.2360  -48.7420   31.4220 O   0  0  0  0  0  0  0  0  0  0  0  0
  -23.1900  -51.1050   30.1090 O   0  0  0  0  0  0  0  0  0  0  0  0
  -21.0500  -48.6890   33.7110 C   0  0  0  0  0  0  0  0  0  0  0  0
  -19.9630  -49.2760   34.5350 C   0  0  0  0  0  3  0  0  0  0  0  0
  -19.7830  -48.8770   35.8710 C   0  0  0  0  0  3  0  0  0  0  0  0
  -20.6750  -47.8630   36.4770 C   0  0  0  0  0  0  0  0  0  0  0  0
  -21.7260  -47.2950   35.7040 C   0  0  0  0  0  0  0  0  0  0  0  0
  -21.9210  -47.7260   34.2970 C   0  0  0  0  0  3  0  0  0  0  0  0
  -20.4720  -47.4750   37.8030 O   0  0  0  0  0  0  0  0  0  0  0  0
  -19.7760  -47.8560   38.3010 H   0  0  0  0  0  0  0  0  0  0  0  0
  -22.5590  -46.3370   36.2910 O   0  0  0  0  0  0  0  0  0  0  0  0
  -22.4200  -46.0760   37.1800 H   0  0  0  0  0  0  0  0  0  0  0  0
  -18.0580  -48.4450   26.9950 O   0  0  0  0  0  0  0  0  0  0  0  0
  -18.0480  -48.6810   26.0880 H   0  0  0  0  0  0  0  0  0  0  0  0
  -22.1870  -51.0990   27.5690 O   0  0  0  0  0  0  0  0  0  0  0  0
  -22.1770  -51.3360   26.6630 H   0  0  0  0  0  0  0  0  0  0  0  0
  -23.1550  -50.3060   32.7440 O   0  0  0  0  0  0  0  0  0  0  0  0
  -23.8630  -50.8520   32.4620 H   0  0  0  0  0  0  0  0  0  0  0  0
  1  6  1  0  0  0  0
  2  1  2  0  0  0  0
  2  3  1  0  0  0  0
  3  4  2  0  0  0  0
  4  5  1  0  0  0  0
  4  7  1  0  0  0  0
  5 10  1  0  0  0  0
  6  5  2  0  0  0  0
  7  8  1  0  0  0  0
  8  9  2  0  0  0  0
  8 26  1  0  0  0  0
  9 12  1  0  0  0  0
 10  9  1  0  0  0  0
 11  7  2  0  0  0  0
 12 17  2  0  0  0  0
 12 13  1  0  0  0  0
 13 14  2  0  0  0  0
 14 15  1  0  0  0  0
 15 18  1  0  0  0  0
 16 20  1  0  0  0  0
 16 15  2  0  0  0  0
 17 16  1  0  0  0  0
 18 19  1  0  0  0  0
 20 21  1  0  0  0  0
 22  1  1  0  0  0  0
 23 22  1  0  0  0  0
 24  3  1  0  0  0  0
 25 24  1  0  0  0  0
 27 26  1  0  0  0  0
M  END
>  <minimizedAffinity>
-5.12151623

$$$$

 OpenBabel10112400233D

 27 29  0  0  0  0  0  0  0  0999 V2000
  -27.4570  -47.0090   24.9920 C   0  0  0  0  0  0  0  0  0  0  0  0
  -27.4100  -48.1400   25.9480 C   0  0  0  0  0  3  0  0  0  0  0  0
  -27.4130  -47.8970   27.3520 C   0  0  0  0  0  0  0  0  0  0  0  0
  -27.4650  -46.4980   27.8420 C   0  0  0  0  0  0  0  0  0  0  0  0
  -27.5090  -45.4260   26.9500 C   0  0  0  0  0  0  0  0  0  0  0  0
  -27.5050  -45.6770   25.4900 C   0  0  0  0  0  3  0  0  0  0  0  0
  -27.4740  -46.1490   29.3080 C   0  0  0  0  0  0  0  0  0  0  0  0
  -27.5380  -44.7230   29.6790 C   0  0  0  0  0  0  0  0  0  0  0  0
  -27.5620  -43.7850   28.7200 C   0  0  0  0  0  0  0  0  0  0  0  0
  -27.5560  -44.1090   27.4150 O   0  0  0  0  0  0  0  0  0  0  0  0
  -27.4320  -47.0010   30.1810 O   0  0  0  0  0  0  0  0  0  0  0  0
  -27.6120  -42.3050   29.0410 C   0  0  0  0  0  0  0  0  0  0  0  0
  -26.3260  -41.5960   29.2580 C   0  0  0  0  0  3  0  0  0  0  0  0
  -26.3070  -40.2220   29.5550 C   0  0  0  0  0  3  0  0  0  0  0  0
  -27.5720  -39.4590   29.6560 C   0  0  0  0  0  0  0  0  0  0  0  0
  -28.8140  -40.1230   29.4580 C   0  0  0  0  0  0  0  0  0  0  0  0
  -28.8330  -41.5770   29.1550 C   0  0  0  0  0  3  0  0  0  0  0  0
  -27.5280  -38.0930   29.9430 O   0  0  0  0  0  0  0  0  0  0  0  0
  -26.7030  -37.6670   30.0710 H   0  0  0  0  0  0  0  0  0  0  0  0
  -30.0000  -39.3890   29.5550 O   0  0  0  0  0  0  0  0  0  0  0  0
  -29.9690  -38.4720   29.7460 H   0  0  0  0  0  0  0  0  0  0  0  0
  -27.4520  -47.2750   23.6210 O   0  0  0  0  0  0  0  0  0  0  0  0
  -27.4200  -48.1610   23.3160 H   0  0  0  0  0  0  0  0  0  0  0  0
  -27.3690  -48.9500   28.2700 O   0  0  0  0  0  0  0  0  0  0  0  0
  -27.3370  -49.8350   27.9640 H   0  0  0  0  0  0  0  0  0  0  0  0
  -27.5850  -44.3670   30.9710 O   0  0  0  0  0  0  0  0  0  0  0  0
  -27.5670  -45.0240   31.6400 H   0  0  0  0  0  0  0  0  0  0  0  0
  1  6  2  0  0  0  0
  1  2  1  0  0  0  0
  2  3  2  0  0  0  0
  3  4  1  0  0  0  0
  3 24  1  0  0  0  0
  4  7  1  0  0  0  0
  5 10  1  0  0  0  0
  5  4  2  0  0  0  0
  6  5  1  0  0  0  0
  7  8  1  0  0  0  0
  7 11  2  0  0  0  0
  8 26  1  0  0  0  0
  9 12  1  0  0  0  0
  9  8  2  0  0  0  0
 10  9  1  0  0  0  0
 12 17  2  0  0  0  0
 12 13  1  0  0  0  0
 13 14  2  0  0  0  0
 14 15  1  0  0  0  0
 15 18  1  0  0  0  0
 16 20  1  0  0  0  0
 16 15  2  0  0  0  0
 17 16  1  0  0  0  0
 18 19  1  0  0  0  0
 20 21  1  0  0  0  0
 22  1  1  0  0  0  0
 23 22  1  0  0  0  0
 25 24  1  0  0  0  0
 26 27  1  0  0  0  0
M  END
>  <minimizedAffinity>
-4.98034286

$$$$

 OpenBabel10112400233D

 27 29  0  0  0  0  0  0  0  0999 V2000
  -27.2420  -47.7550   31.7640 C   0  0  0  0  0  0  0  0  0  0  0  0
  -27.0950  -48.5650   30.5320 C   0  0  0  0  0  3  0  0  0  0  0  0
  -27.0640  -47.9330   29.2540 C   0  0  0  0  0  0  0  0  0  0  0  0
  -27.1800  -46.4560   29.1770 C   0  0  0  0  0  0  0  0  0  0  0  0
  -27.3200  -45.6850   30.3320 C   0  0  0  0  0  0  0  0  0  0  0  0
  -27.3530  -46.3400   31.6600 C   0  0  0  0  0  3  0  0  0  0  0  0
  -27.1550  -45.7060   27.8700 C   0  0  0  0  0  0  0  0  0  0  0  0
  -27.2690  -44.2360   27.9150 C   0  0  0  0  0  0  0  0  0  0  0  0
  -27.4130  -43.6140   29.0940 C   0  0  0  0  0  0  0  0  0  0  0  0
  -27.4310  -44.2940   30.2540 O   0  0  0  0  0  0  0  0  0  0  0  0
  -27.0440  -46.2730   26.7950 O   0  0  0  0  0  0  0  0  0  0  0  0
  -27.5490  -42.1080   29.2010 C   0  0  0  0  0  0  0  0  0  0  0  0
  -26.3050  -41.3010   29.2670 C   0  0  0  0  0  3  0  0  0  0  0  0
  -26.3660  -39.8980   29.3630 C   0  0  0  0  0  3  0  0  0  0  0  0
  -27.6740  -39.2060   29.3970 C   0  0  0  0  0  0  0  0  0  0  0  0
  -28.8770  -39.9650   29.3420 C   0  0  0  0  0  0  0  0  0  0  0  0
  -28.8100  -41.4450   29.2530 C   0  0  0  0  0  3  0  0  0  0  0  0
  -27.7110  -37.8130   29.4830 O   0  0  0  0  0  0  0  0  0  0  0  0
  -26.9120  -37.3240   29.5190 H   0  0  0  0  0  0  0  0  0  0  0  0
  -30.1040  -39.2960   29.3750 O   0  0  0  0  0  0  0  0  0  0  0  0
  -30.1270  -38.3610   29.4310 H   0  0  0  0  0  0  0  0  0  0  0  0
  -27.2700  -48.3990   33.0030 O   0  0  0  0  0  0  0  0  0  0  0  0
  -27.1950  -49.3320   33.0480 H   0  0  0  0  0  0  0  0  0  0  0  0
  -26.9260  -48.6790   28.0810 O   0  0  0  0  0  0  0  0  0  0  0  0
  -26.8520  -49.6120   28.1260 H   0  0  0  0  0  0  0  0  0  0  0  0
  -27.2140  -43.5240   26.7800 O   0  0  0  0  0  0  0  0  0  0  0  0
  -27.1150  -43.9610   25.9560 H   0  0  0  0  0  0  0  0  0  0  0  0
  1 22  1  0  0  0  0
  2  1  2  0  0  0  0
  3  2  1  0  0  0  0
  4  3  2  0  0  0  0
  4  5  1  0  0  0  0
  5  6  2  0  0  0  0
  6  1  1  0  0  0  0
  7  8  1  0  0  0  0
  7  4  1  0  0  0  0
  8  9  2  0  0  0  0
  9 12  1  0  0  0  0
  9 10  1  0  0  0  0
 10  5  1  0  0  0  0
 11  7  2  0  0  0  0
 12 17  2  0  0  0  0
 12 13  1  0  0  0  0
 13 14  2  0  0  0  0
 14 15  1  0  0  0  0
 15 18  1  0  0  0  0
 16 20  1  0  0  0  0
 16 15  2  0  0  0  0
 17 16  1  0  0  0  0
 18 19  1  0  0  0  0
 20 21  1  0  0  0  0
 22 23  1  0  0  0  0
 24 25  1  0  0  0  0
 24  3  1  0  0  0  0
 26  8  1  0  0  0  0
 27 26  1  0  0  0  0
M  END
>  <minimizedAffinity>
-4.87234879

$$$$

 OpenBabel10112400233D

 27 29  0  0  0  0  0  0  0  0999 V2000
  -20.4040  -48.4220   36.4860 C   0  0  0  0  0  0  0  0  0  0  0  0
  -21.8270  -48.7660   36.7120 C   0  0  0  0  0  3  0  0  0  0  0  0
  -22.6590  -49.1480   35.6190 C   0  0  0  0  0  0  0  0  0  0  0  0
  -22.0790  -49.1970   34.2540 C   0  0  0  0  0  0  0  0  0  0  0  0
  -20.7390  -48.8740   34.0320 C   0  0  0  0  0  0  0  0  0  0  0  0
  -19.8750  -48.4760   35.1670 C   0  0  0  0  0  3  0  0  0  0  0  0
  -22.8830  -49.5910   33.0430 C   0  0  0  0  0  0  0  0  0  0  0  0
  -22.1980  -49.6150   31.7370 C   0  0  0  0  0  0  0  0  0  0  0  0
  -20.9050  -49.2680   31.6550 C   0  0  0  0  0  0  0  0  0  0  0  0
  -20.1970  -48.9190   32.7440 O   0  0  0  0  0  0  0  0  0  0  0  0
  -24.0640  -49.8890   33.1130 O   0  0  0  0  0  0  0  0  0  0  0  0
  -20.1530  -49.2580   30.3390 C   0  0  0  0  0  0  0  0  0  0  0  0
  -19.9820  -47.9570   29.6460 C   0  0  0  0  0  3  0  0  0  0  0  0
  -19.2910  -47.8820   28.4230 C   0  0  0  0  0  3  0  0  0  0  0  0
  -18.7220  -49.1040   27.8080 C   0  0  0  0  0  0  0  0  0  0  0  0
  -18.8830  -50.3600   28.4550 C   0  0  0  0  0  0  0  0  0  0  0  0
  -19.6230  -50.4380   29.7400 C   0  0  0  0  0  3  0  0  0  0  0  0
  -18.0320  -49.0050   26.5980 O   0  0  0  0  0  0  0  0  0  0  0  0
  -17.9330  -48.1710   26.1820 H   0  0  0  0  0  0  0  0  0  0  0  0
  -18.3390  -51.5040   27.8630 O   0  0  0  0  0  0  0  0  0  0  0  0
  -17.8750  -51.4360   27.0510 H   0  0  0  0  0  0  0  0  0  0  0  0
  -19.6120  -48.0500   37.5750 O   0  0  0  0  0  0  0  0  0  0  0  0
  -19.9820  -48.0220   38.4350 H   0  0  0  0  0  0  0  0  0  0  0  0
  -24.0030  -49.4760   35.8120 O   0  0  0  0  0  0  0  0  0  0  0  0
  -24.3730  -49.4460   36.6720 H   0  0  0  0  0  0  0  0  0  0  0  0
  -22.8640  -49.9950   30.6370 O   0  0  0  0  0  0  0  0  0  0  0  0
  -23.7680  -50.2360   30.6950 H   0  0  0  0  0  0  0  0  0  0  0  0
  1  2  1  0  0  0  0
  1 22  1  0  0  0  0
  3 24  1  0  0  0  0
  3  2  2  0  0  0  0
  4  3  1  0  0  0  0
  5  4  2  0  0  0  0
  5  6  1  0  0  0  0
  6  1  2  0  0  0  0
  7 11  2  0  0  0  0
  7  4  1  0  0  0  0
  8  7  1  0  0  0  0
  9  8  2  0  0  0  0
  9 10  1  0  0  0  0
 10  5  1  0  0  0  0
 12  9  1  0  0  0  0
 13 12  2  0  0  0  0
 14 13  1  0  0  0  0
 15 14  2  0  0  0  0
 15 16  1  0  0  0  0
 16 17  2  0  0  0  0
 17 12  1  0  0  0  0
 18 15  1  0  0  0  0
 19 18  1  0  0  0  0
 20 16  1  0  0  0  0
 21 20  1  0  0  0  0
 22 23  1  0  0  0  0
 24 25  1  0  0  0  0
 26 27  1  0  0  0  0
 26  8  1  0  0  0  0
M  END
>  <minimizedAffinity>
-4.8618474

$$$$

 OpenBabel10112400233D

 27 29  0  0  0  0  0  0  0  0999 V2000
  -23.1430  -50.2680   30.2060 C   0  0  0  0  0  0  0  0  0  0  0  0
  -21.7640  -50.5540   29.7450 C   0  0  0  0  0  3  0  0  0  0  0  0
  -20.6470  -50.2170   30.5640 C   0  0  0  0  0  0  0  0  0  0  0  0
  -20.8850  -49.5790   31.8820 C   0  0  0  0  0  0  0  0  0  0  0  0
  -22.1810  -49.3050   32.3240 C   0  0  0  0  0  0  0  0  0  0  0  0
  -23.3420  -49.6540   31.4730 C   0  0  0  0  0  3  0  0  0  0  0  0
  -19.7650  -49.1910   32.8120 C   0  0  0  0  0  0  0  0  0  0  0  0
  -20.1210  -48.5720   34.1020 C   0  0  0  0  0  0  0  0  0  0  0  0
  -21.4100  -48.3500   34.4030 C   0  0  0  0  0  0  0  0  0  0  0  0
  -22.4010  -48.7020   33.5650 O   0  0  0  0  0  0  0  0  0  0  0  0
  -18.5920  -49.3750   32.5310 O   0  0  0  0  0  0  0  0  0  0  0  0
  -21.8340  -47.7030   35.7060 C   0  0  0  0  0  0  0  0  0  0  0  0
  -21.8710  -46.2210   35.7670 C   0  0  0  0  0  3  0  0  0  0  0  0
  -22.2600  -45.5610   36.9470 C   0  0  0  0  0  3  0  0  0  0  0  0
  -22.6410  -46.3390   38.1480 C   0  0  0  0  0  0  0  0  0  0  0  0
  -22.6040  -47.7600   38.1100 C   0  0  0  0  0  0  0  0  0  0  0  0
  -22.1820  -48.4540   36.8670 C   0  0  0  0  0  3  0  0  0  0  0  0
  -23.0330  -45.6640   39.3060 O   0  0  0  0  0  0  0  0  0  0  0  0
  -23.0530  -44.7270   39.3180 H   0  0  0  0  0  0  0  0  0  0  0  0
  -22.9680  -48.4800   39.2530 O   0  0  0  0  0  0  0  0  0  0  0  0
  -23.2330  -48.0260   40.0290 H   0  0  0  0  0  0  0  0  0  0  0  0
  -24.2200  -50.6080   29.3840 O   0  0  0  0  0  0  0  0  0  0  0  0
  -24.0650  -51.0120   28.5520 H   0  0  0  0  0  0  0  0  0  0  0  0
  -19.3390  -50.4780   30.1480 O   0  0  0  0  0  0  0  0  0  0  0  0
  -19.1850  -50.8810   29.3160 H   0  0  0  0  0  0  0  0  0  0  0  0
  -19.1590  -48.2450   34.9780 O   0  0  0  0  0  0  0  0  0  0  0  0
  -18.2590  -48.3990   34.7660 H   0  0  0  0  0  0  0  0  0  0  0  0
  1  6  1  0  0  0  0
  2  1  2  0  0  0  0
  2  3  1  0  0  0  0
  3  4  2  0  0  0  0
  4  5  1  0  0  0  0
  4  7  1  0  0  0  0
  5 10  1  0  0  0  0
  6  5  2  0  0  0  0
  7  8  1  0  0  0  0
  8  9  2  0  0  0  0
  8 26  1  0  0  0  0
  9 12  1  0  0  0  0
 10  9  1  0  0  0  0
 11  7  2  0  0  0  0
 12 13  2  0  0  0  0
 12 17  1  0  0  0  0
 13 14  1  0  0  0  0
 14 15  2  0  0  0  0
 15 18  1  0  0  0  0
 16 15  1  0  0  0  0
 16 20  1  0  0  0  0
 17 16  2  0  0  0  0
 18 19  1  0  0  0  0
 20 21  1  0  0  0  0
 22  1  1  0  0  0  0
 23 22  1  0  0  0  0
 24  3  1  0  0  0  0
 25 24  1  0  0  0  0
 27 26  1  0  0  0  0
M  END
>  <minimizedAffinity>
-4.77416563

$$$$

 OpenBabel10112400233D

 27 29  0  0  0  0  0  0  0  0999 V2000
  -26.6050  -40.3650   28.3570 C   0  0  0  0  0  0  0  0  0  0  0  0
  -28.0110  -39.9900   28.0800 C   0  0  0  0  0  3  0  0  0  0  0  0
  -29.0570  -40.9460   28.2440 C   0  0  0  0  0  0  0  0  0  0  0  0
  -28.7160  -42.3170   28.6970 C   0  0  0  0  0  0  0  0  0  0  0  0
  -27.3940  -42.6790   28.9600 C   0  0  0  0  0  0  0  0  0  0  0  0
  -26.3070  -41.6870   28.7880 C   0  0  0  0  0  3  0  0  0  0  0  0
  -29.7560  -43.3890   28.8990 C   0  0  0  0  0  0  0  0  0  0  0  0
  -29.3020  -44.7130   29.3620 C   0  0  0  0  0  0  0  0  0  0  0  0
  -27.9950  -44.9370   29.5660 C   0  0  0  0  0  0  0  0  0  0  0  0
  -27.0760  -43.9720   29.3840 O   0  0  0  0  0  0  0  0  0  0  0  0
  -30.9430  -43.1920   28.6950 O   0  0  0  0  0  0  0  0  0  0  0  0
  -27.4690  -46.2820   30.0270 C   0  0  0  0  0  0  0  0  0  0  0  0
  -27.0370  -47.2510   28.9890 C   0  0  0  0  0  3  0  0  0  0  0  0
  -26.5360  -48.5150   29.3540 C   0  0  0  0  0  3  0  0  0  0  0  0
  -26.4310  -48.8960   30.7800 C   0  0  0  0  0  0  0  0  0  0  0  0
  -26.8480  -47.9820   31.7880 C   0  0  0  0  0  0  0  0  0  0  0  0
  -27.3870  -46.6530   31.4000 C   0  0  0  0  0  3  0  0  0  0  0  0
  -25.9230  -50.1510   31.1200 O   0  0  0  0  0  0  0  0  0  0  0  0
  -25.6520  -50.7440   30.4470 H   0  0  0  0  0  0  0  0  0  0  0  0
  -26.7420  -48.3560   33.1310 O   0  0  0  0  0  0  0  0  0  0  0  0
  -26.3990  -49.1980   33.3570 H   0  0  0  0  0  0  0  0  0  0  0  0
  -25.6000  -39.4090   28.1870 O   0  0  0  0  0  0  0  0  0  0  0  0
  -25.8200  -38.5440   27.9020 H   0  0  0  0  0  0  0  0  0  0  0  0
  -30.3890  -40.6130   27.9880 O   0  0  0  0  0  0  0  0  0  0  0  0
  -30.6080  -39.7480   27.7020 H   0  0  0  0  0  0  0  0  0  0  0  0
  -30.1960  -45.6860   29.5910 O   0  0  0  0  0  0  0  0  0  0  0  0
  -31.1080  -45.5290   29.4470 H   0  0  0  0  0  0  0  0  0  0  0  0
  1  6  1  0  0  0  0
  2  3  1  0  0  0  0
  2  1  2  0  0  0  0
  3  4  2  0  0  0  0
  4  7  1  0  0  0  0
  4  5  1  0  0  0  0
  5 10  1  0  0  0  0
  6  5  2  0  0  0  0
  7  8  1  0  0  0  0
  8  9  2  0  0  0  0
  8 26  1  0  0  0  0
  9 12  1  0  0  0  0
 10  9  1  0  0  0  0
 11  7  2  0  0  0  0
 12 17  1  0  0  0  0
 13 14  1  0  0  0  0
 13 12  2  0  0  0  0
 14 15  2  0  0  0  0
 15 18  1  0  0  0  0
 15 16  1  0  0  0  0
 16 20  1  0  0  0  0
 17 16  2  0  0  0  0
 19 18  1  0  0  0  0
 20 21  1  0  0  0  0
 22  1  1  0  0  0  0
 23 22  1  0  0  0  0
 24  3  1  0  0  0  0
 25 24  1  0  0  0  0
 27 26  1  0  0  0  0
M  END
>  <minimizedAffinity>
-4.66210461

$$$$

 OpenBabel10112400233D

 27 29  0  0  0  0  0  0  0  0999 V2000
  -24.1720  -50.5270   31.8730 C   0  0  0  0  0  0  0  0  0  0  0  0
  -25.0500  -50.2780   33.0400 C   0  0  0  0  0  3  0  0  0  0  0  0
  -26.1990  -49.4440   32.9120 C   0  0  0  0  0  0  0  0  0  0  0  0
  -26.5030  -48.8310   31.5950 C   0  0  0  0  0  0  0  0  0  0  0  0
  -25.6810  -49.0600   30.4900 C   0  0  0  0  0  0  0  0  0  0  0  0
  -24.4860  -49.9260   30.6230 C   0  0  0  0  0  3  0  0  0  0  0  0
  -27.6950  -47.9390   31.3680 C   0  0  0  0  0  0  0  0  0  0  0  0
  -27.9030  -47.3940   30.0140 C   0  0  0  0  0  0  0  0  0  0  0  0
  -27.0290  -47.6800   29.0370 C   0  0  0  0  0  0  0  0  0  0  0  0
  -25.9680  -48.4800   29.2520 O   0  0  0  0  0  0  0  0  0  0  0  0
  -28.4810  -47.6620   32.2600 O   0  0  0  0  0  0  0  0  0  0  0  0
  -27.1820  -47.1370   27.6310 C   0  0  0  0  0  0  0  0  0  0  0  0
  -26.6550  -45.7780   27.3490 C   0  0  0  0  0  3  0  0  0  0  0  0
  -26.7640  -45.2200   26.0630 C   0  0  0  0  0  3  0  0  0  0  0  0
  -27.4070  -45.9820   24.9680 C   0  0  0  0  0  0  0  0  0  0  0  0
  -27.9250  -47.2820   25.2220 C   0  0  0  0  0  0  0  0  0  0  0  0
  -27.8190  -47.8650   26.5840 C   0  0  0  0  0  3  0  0  0  0  0  0
  -27.4970  -45.4120   23.6960 O   0  0  0  0  0  0  0  0  0  0  0  0
  -27.1520  -44.5540   23.5420 H   0  0  0  0  0  0  0  0  0  0  0  0
  -28.5280  -47.9900   24.1770 O   0  0  0  0  0  0  0  0  0  0  0  0
  -28.5860  -47.6060   23.3240 H   0  0  0  0  0  0  0  0  0  0  0  0
  -23.0530  -51.3480   32.0270 O   0  0  0  0  0  0  0  0  0  0  0  0
  -22.8650  -51.7340   32.8600 H   0  0  0  0  0  0  0  0  0  0  0  0
  -27.0400  -49.1960   34.0000 O   0  0  0  0  0  0  0  0  0  0  0  0
  -26.8520  -49.5810   34.8330 H   0  0  0  0  0  0  0  0  0  0  0  0
  -28.9720  -46.6250   29.7560 O   0  0  0  0  0  0  0  0  0  0  0  0
  -29.5810  -46.4250   30.4400 H   0  0  0  0  0  0  0  0  0  0  0  0
  1 22  1  0  0  0  0
  1  2  1  0  0  0  0
  3  2  2  0  0  0  0
  3 24  1  0  0  0  0
  4  3  1  0  0  0  0
  5  6  1  0  0  0  0
  5  4  2  0  0  0  0
  6  1  2  0  0  0  0
  7  4  1  0  0  0  0
  7 11  2  0  0  0  0
  8  7  1  0  0  0  0
  9 10  1  0  0  0  0
  9  8  2  0  0  0  0
 10  5  1  0  0  0  0
 12  9  1  0  0  0  0
 13 12  1  0  0  0  0
 14 13  2  0  0  0  0
 15 16  2  0  0  0  0
 15 14  1  0  0  0  0
 16 17  1  0  0  0  0
 17 12  2  0  0  0  0
 18 15  1  0  0  0  0
 19 18  1  0  0  0  0
 20 16  1  0  0  0  0
 21 20  1  0  0  0  0
 22 23  1  0  0  0  0
 24 25  1  0  0  0  0
 26  8  1  0  0  0  0
 26 27  1  0  0  0  0
M  END
>  <minimizedAffinity>
-4.33739805

$$$$

 OpenBabel10112400233D

 27 29  0  0  0  0  0  0  0  0999 V2000
  -30.8190  -46.7500   30.6260 C   0  0  0  0  0  0  0  0  0  0  0  0
  -30.1420  -47.9160   30.0130 C   0  0  0  0  0  3  0  0  0  0  0  0
  -29.0310  -47.7270   29.1390 C   0  0  0  0  0  0  0  0  0  0  0  0
  -28.5650  -46.3470   28.8540 C   0  0  0  0  0  0  0  0  0  0  0  0
  -29.1980  -45.2430   29.4270 C   0  0  0  0  0  0  0  0  0  0  0  0
  -30.3520  -45.4390   30.3340 C   0  0  0  0  0  3  0  0  0  0  0  0
  -27.4000  -46.0550   27.9450 C   0  0  0  0  0  0  0  0  0  0  0  0
  -27.0180  -44.6450   27.7420 C   0  0  0  0  0  0  0  0  0  0  0  0
  -27.7190  -43.6710   28.3430 C   0  0  0  0  0  0  0  0  0  0  0  0
  -28.7570  -43.9450   29.1540 O   0  0  0  0  0  0  0  0  0  0  0  0
  -26.7740  -46.9390   27.3830 O   0  0  0  0  0  0  0  0  0  0  0  0
  -27.3830  -42.2050   28.1600 C   0  0  0  0  0  0  0  0  0  0  0  0
  -26.6100  -41.5300   29.2330 C   0  0  0  0  0  3  0  0  0  0  0  0
  -26.2640  -40.1710   29.1200 C   0  0  0  0  0  3  0  0  0  0  0  0
  -26.6660  -39.3920   27.9260 C   0  0  0  0  0  0  0  0  0  0  0  0
  -27.4140  -40.0210   26.8920 C   0  0  0  0  0  0  0  0  0  0  0  0
  -27.7870  -41.4530   27.0190 C   0  0  0  0  0  3  0  0  0  0  0  0
  -26.3040  -38.0470   27.8310 O   0  0  0  0  0  0  0  0  0  0  0  0
  -25.8110  -37.6450   28.5190 H   0  0  0  0  0  0  0  0  0  0  0  0
  -27.7850  -39.2730   25.7700 O   0  0  0  0  0  0  0  0  0  0  0  0
  -27.5400  -38.3700   25.7070 H   0  0  0  0  0  0  0  0  0  0  0  0
  -31.9050  -46.9640   31.4790 O   0  0  0  0  0  0  0  0  0  0  0  0
  -32.1960  -47.8370   31.6570 H   0  0  0  0  0  0  0  0  0  0  0  0
  -28.3790  -48.8130   28.5510 O   0  0  0  0  0  0  0  0  0  0  0  0
  -28.6710  -49.6860   28.7290 H   0  0  0  0  0  0  0  0  0  0  0  0
  -25.9650  -44.3380   26.9720 O   0  0  0  0  0  0  0  0  0  0  0  0
  -25.4760  -45.0200   26.5520 H   0  0  0  0  0  0  0  0  0  0  0  0
  1 22  1  0  0  0  0
  2  1  2  0  0  0  0
  3  2  1  0  0  0  0
  4  3  2  0  0  0  0
  4  5  1  0  0  0  0
  5  6  2  0  0  0  0
  6  1  1  0  0  0  0
  7  4  1  0  0  0  0
  8  7  1  0  0  0  0
  8  9  2  0  0  0  0
  9 10  1  0  0  0  0
 10  5  1  0  0  0  0
 11  7  2  0  0  0  0
 12  9  1  0  0  0  0
 12 13  1  0  0  0  0
 14 13  2  0  0  0  0
 15 14  1  0  0  0  0
 16 17  1  0  0  0  0
 16 15  2  0  0  0  0
 17 12  2  0  0  0  0
 18 15  1  0  0  0  0
 18 19  1  0  0  0  0
 20 16  1  0  0  0  0
 21 20  1  0  0  0  0
 22 23  1  0  0  0  0
 24 25  1  0  0  0  0
 24  3  1  0  0  0  0
 26  8  1  0  0  0  0
 27 26  1  0  0  0  0
M  END
>  <minimizedAffinity>
-4.24301434

$$$$
